data/nesta/nesta_case2383wp_mp__api.m
%%%%%%%%%%%%%%%%%%%%%%%%%%%%%%%%%%%%%%%%%%%%%%%%%%%%%%%%%%%%%%%%%%%%%%%%%%%
%%%%                                                                  %%%%%
%%%%      NICTA Energy System Test Case Archive (NESTA) - v0.1.5      %%%%%
%%%%            Optimal Power Flow - Active Power Increase            %%%%%
%%%%                       30 - October - 2014                        %%%%%
%%%%                                                                  %%%%%
%%%%%%%%%%%%%%%%%%%%%%%%%%%%%%%%%%%%%%%%%%%%%%%%%%%%%%%%%%%%%%%%%%%%%%%%%%%
function mpc = nesta_case2383wp_mp__api
mpc.version = '2';
mpc.baseMVA = 100.0;

%% area data
%	area	refbus
mpc.areas = [
	1	 18;
];

%% bus data
%	bus_i	type	Pd	Qd	Gs	Bs	area	Vm	Va	baseKV	zone	Vmax	Vmin
mpc.bus = [
	1	 1	 0.00	 0.00	 0.0	 0.0	 1	     1.0946	    -1.4948	 220.0	 1	     1.1100	     0.9500;
	2	 1	 0.00	 0.00	 0.0	 0.0	 1	     1.0854	    -1.0101	 220.0	 1	     1.1100	     0.9500;
	3	 1	 0.00	 0.00	 0.0	 0.0	 1	     1.0746	   -26.2082	 220.0	 1	     1.1100	     0.9500;
	4	 1	 0.00	 0.00	 0.0	 0.0	 1	     1.0714	    -8.5165	 220.0	 1	     1.1100	     0.9500;
	5	 1	 0.00	 0.00	 0.0	 0.0	 1	     1.0665	   -18.9975	 220.0	 1	     1.1100	     0.9500;
	6	 1	 0.00	 0.00	 0.0	 0.0	 1	     1.0236	   -13.8223	 400.0	 1	     1.0500	     0.9500;
	7	 1	 0.00	 0.00	 0.0	 0.0	 1	     1.0598	   -21.4437	 220.0	 1	     1.1100	     0.9500;
	8	 1	 0.00	 0.00	 0.0	 0.0	 1	     1.0275	   -10.3803	 400.0	 1	     1.0500	     0.9500;
	9	 1	 0.00	 0.00	 0.0	 0.0	 1	     1.0357	   -16.8761	 400.0	 1	     1.0500	     0.9500;
	10	 2	 12.76	 9.00	 0.0	 0.0	 1	     1.1082	   -20.6499	 220.0	 1	     1.1100	     0.9500;
	11	 1	 0.00	 0.00	 0.0	 0.0	 1	     1.0778	    -7.0641	 220.0	 1	     1.1100	     0.9500;
	12	 1	 0.00	 0.00	 0.0	 0.0	 1	     1.0668	   -23.9177	 220.0	 1	     1.1100	     0.9500;
	13	 1	 0.00	 0.00	 0.0	 0.0	 1	     1.0652	   -21.4897	 220.0	 1	     1.1100	     0.9500;
	14	 1	 0.00	 0.00	 0.0	 0.0	 1	     1.0664	    -5.0698	 220.0	 1	     1.1100	     0.9500;
	15	 1	 0.00	 0.00	 0.0	 0.0	 1	     1.0094	   -15.3188	 400.0	 1	     1.0500	     0.9500;
	16	 2	 57.25	 100.00	 0.0	 0.0	 1	     1.0974	    -0.9847	 220.0	 1	     1.1100	     0.9500;
	17	 2	 80.32	 150.00	 0.0	 0.0	 1	     1.0910	    -0.1484	 220.0	 1	     1.1100	     0.9500;
	18	 3	 159.60	 350.00	 0.0	 0.0	 1	     1.0337	     0.0000	 400.0	 1	     1.0500	     0.9500;
	19	 1	 0.00	 0.00	 0.0	 0.0	 1	     1.0659	   -22.6857	 220.0	 1	     1.1100	     0.9500;
	20	 1	 0.00	 0.00	 0.0	 0.0	 1	     1.0371	    -1.9369	 400.0	 1	     1.0500	     0.9500;
	21	 1	 0.00	 0.00	 0.0	 0.0	 1	     1.0594	   -21.8748	 220.0	 1	     1.1100	     0.9500;
	22	 1	 0.00	 0.00	 0.0	 0.0	 1	     1.0814	   -12.3887	 220.0	 1	     1.1100	     0.9500;
	23	 1	 0.00	 0.00	 0.0	 0.0	 1	     1.0624	   -16.6846	 220.0	 2	     1.1100	     0.9500;
	24	 1	 0.00	 0.00	 0.0	 0.0	 1	     1.0545	   -12.1019	 220.0	 2	     1.1100	     0.9500;
	25	 1	 0.00	 0.00	 0.0	 0.0	 1	     1.0566	   -10.6238	 220.0	 2	     1.1100	     0.9500;
	26	 1	 0.00	 0.00	 0.0	 0.0	 1	     1.0514	   -19.5201	 220.0	 2	     1.1100	     0.9500;
	27	 1	 0.00	 0.00	 0.0	 0.0	 1	     1.0659	   -10.2481	 220.0	 2	     1.1100	     0.9500;
	28	 1	 0.00	 0.00	 0.0	 0.0	 1	     1.0659	   -10.2431	 220.0	 2	     1.1100	     0.9500;
	29	 2	 27.10	 60.00	 0.0	 0.0	 1	     1.0967	   -15.3401	 220.0	 2	     1.1100	     0.9500;
	30	 2	 27.10	 60.00	 0.0	 0.0	 1	     1.0967	   -15.3408	 220.0	 2	     1.1100	     0.9500;
	31	 2	 21.89	 50.00	 0.0	 0.0	 1	     1.0214	   -10.7310	 400.0	 2	     1.0500	     0.9500;
	32	 1	 0.00	 0.00	 0.0	 0.0	 1	     1.0214	   -10.7702	 400.0	 2	     1.0500	     0.9500;
	33	 1	 0.00	 0.00	 0.0	 0.0	 1	     1.0603	   -11.0078	 220.0	 2	     1.1100	     0.9500;
	34	 1	 0.00	 0.00	 0.0	 0.0	 1	     1.0437	   -10.3139	 400.0	 2	     1.0500	     0.9500;
	35	 1	 0.00	 0.00	 0.0	 0.0	 1	     1.0438	   -10.3220	 400.0	 2	     1.0500	     0.9500;
	36	 1	 0.00	 0.00	 0.0	 0.0	 1	     1.0036	   -14.0199	 400.0	 2	     1.0500	     0.9500;
	37	 1	 0.00	 0.00	 0.0	 0.0	 1	     1.0618	   -17.6536	 220.0	 2	     1.1100	     0.9500;
	38	 1	 0.00	 0.00	 0.0	 0.0	 1	     1.0618	   -17.6525	 220.0	 2	     1.1100	     0.9500;
	39	 1	 0.00	 0.00	 0.0	 0.0	 1	     1.0154	    -9.4424	 400.0	 2	     1.0500	     0.9500;
	40	 1	 0.00	 0.00	 0.0	 0.0	 1	     1.0154	    -9.4321	 400.0	 2	     1.0500	     0.9500;
	41	 2	 12.51	 30.00	 0.0	 0.0	 1	     1.0609	    -8.4980	 220.0	 2	     1.1100	     0.9500;
	42	 2	 12.51	 30.00	 0.0	 0.0	 1	     1.0609	    -8.5105	 220.0	 2	     1.1100	     0.9500;
	43	 2	 25.01	 60.00	 0.0	 0.0	 1	     1.0229	    -6.9130	 400.0	 2	     1.0500	     0.9500;
	44	 2	 25.01	 60.00	 0.0	 0.0	 1	     1.0229	    -6.9258	 400.0	 2	     1.0500	     0.9500;
	45	 2	 166.74	 75.00	 0.0	 0.0	 1	     1.0792	   -16.2899	 220.0	 2	     1.1100	     0.9500;
	46	 1	 0.00	 0.00	 0.0	 0.0	 1	     1.0792	   -16.2883	 220.0	 2	     1.1100	     0.9500;
	47	 1	 0.00	 0.00	 0.0	 0.0	 1	     1.0601	   -10.8922	 220.0	 2	     1.1100	     0.9500;
	48	 1	 0.00	 0.00	 0.0	 0.0	 1	     1.0778	   -15.2935	 220.0	 2	     1.1100	     0.9500;
	49	 1	 0.00	 0.00	 0.0	 0.0	 1	     1.0778	   -15.2979	 220.0	 2	     1.1100	     0.9500;
	50	 1	 0.00	 0.00	 0.0	 0.0	 1	     1.0308	    -8.5192	 400.0	 2	     1.0500	     0.9500;
	51	 1	 0.00	 0.00	 0.0	 0.0	 1	     1.0309	    -8.5378	 400.0	 2	     1.0500	     0.9500;
	52	 1	 0.00	 0.00	 0.0	 0.0	 1	     1.0531	   -13.1269	 220.0	 2	     1.1100	     0.9500;
	53	 1	 0.00	 0.00	 0.0	 0.0	 1	     1.0551	   -13.0052	 220.0	 2	     1.1100	     0.9500;
	54	 1	 0.00	 0.00	 0.0	 0.0	 1	     1.0568	   -10.5536	 220.0	 2	     1.1100	     0.9500;
	55	 1	 0.00	 0.00	 0.0	 0.0	 1	     1.0667	   -16.7017	 220.0	 2	     1.1100	     0.9500;
	56	 1	 0.00	 0.00	 0.0	 0.0	 1	     1.0802	    -5.1255	 220.0	 3	     1.1100	     0.9500;
	57	 1	 23.97	 10.96	 0.0	 0.0	 1	     1.0788	    -7.2859	 220.0	 3	     1.1100	     0.9500;
	58	 1	 22.93	 5.79	 0.0	 0.0	 1	     1.0790	    -7.2859	 220.0	 3	     1.1100	     0.9500;
	59	 1	 0.00	 0.00	 0.0	 0.0	 1	     1.1054	     0.4668	 220.0	 3	     1.1100	     0.9500;
	60	 1	 0.00	 0.00	 0.0	 0.0	 1	     1.1034	    -3.8522	 220.0	 3	     1.1100	     0.9500;
	61	 1	 0.00	 0.00	 0.0	 0.0	 1	     1.1085	     2.0938	 220.0	 3	     1.1100	     0.9500;
	62	 1	 0.00	 0.00	 0.0	 0.0	 1	     1.1084	     2.0955	 220.0	 3	     1.1100	     0.9500;
	63	 2	 38.98	 52.69	 0.0	 0.0	 1	     1.1100	     0.8133	 220.0	 3	     1.1100	     0.9500;
	64	 2	 36.90	 55.32	 0.0	 0.0	 1	     1.1093	     0.6464	 220.0	 3	     1.1100	     0.9500;
	65	 1	 13.97	 2.02	 0.0	 0.0	 1	     1.1032	    -1.0285	 220.0	 3	     1.1100	     0.9500;
	66	 1	 0.00	 0.00	 0.0	 0.0	 1	     1.1003	    -8.6355	 220.0	 3	     1.1100	     0.9500;
	67	 2	 63.01	 92.10	 0.0	 0.0	 1	     1.0500	    -6.5573	 400.0	 3	     1.0500	     0.9500;
	68	 1	 0.00	 0.00	 0.0	 0.0	 1	     1.1002	    -6.9023	 220.0	 3	     1.1100	     0.9500;
	69	 1	 0.00	 0.00	 0.0	 0.0	 1	     1.1070	    -0.8382	 220.0	 3	     1.1100	     0.9500;
	70	 1	 0.00	 0.00	 0.0	 0.0	 1	     1.0849	    -4.3023	 220.0	 3	     1.1100	     0.9500;
	71	 1	 0.00	 0.00	 0.0	 0.0	 1	     1.0989	    -1.8371	 220.0	 3	     1.1100	     0.9500;
	72	 1	 0.00	 0.00	 0.0	 0.0	 1	     1.0989	    -1.8371	 220.0	 3	     1.1100	     0.9500;
	73	 1	 0.00	 0.00	 0.0	 0.0	 1	     1.0878	    -3.6331	 220.0	 3	     1.1100	     0.9500;
	74	 1	 0.00	 0.00	 0.0	 0.0	 1	     1.0849	    -4.5133	 220.0	 3	     1.1100	     0.9500;
	75	 1	 0.00	 0.00	 0.0	 0.0	 1	     1.0319	    -1.6723	 400.0	 3	     1.0500	     0.9500;
	76	 1	 0.00	 0.00	 0.0	 0.0	 1	     1.0319	    -1.6783	 400.0	 3	     1.0500	     0.9500;
	77	 1	 0.00	 0.00	 0.0	 0.0	 1	     1.0987	    -2.2673	 220.0	 3	     1.1100	     0.9500;
	78	 1	 0.00	 0.00	 0.0	 0.0	 1	     1.0966	    -4.9713	 220.0	 3	     1.1100	     0.9500;
	79	 1	 0.00	 0.00	 0.0	 0.0	 1	     1.0988	    -1.2768	 220.0	 3	     1.1100	     0.9500;
	80	 1	 0.00	 0.00	 0.0	 0.0	 1	     1.0795	    -7.2345	 220.0	 3	     1.1100	     0.9500;
	81	 1	 0.00	 0.00	 0.0	 0.0	 1	     1.0795	    -7.2342	 220.0	 3	     1.1100	     0.9500;
	82	 1	 0.00	 0.00	 0.0	 0.0	 1	     1.1039	     1.0128	 220.0	 3	     1.1100	     0.9500;
	83	 2	 16.68	 22.97	 0.0	 0.0	 1	     1.1090	    -0.8205	 220.0	 3	     1.1100	     0.9500;
	84	 2	 16.47	 22.27	 0.0	 0.0	 1	     1.1091	    -0.8218	 220.0	 3	     1.1100	     0.9500;
	85	 2	 10.42	 17.01	 0.0	 0.0	 1	     1.1017	    -2.2938	 220.0	 3	     1.1100	     0.9500;
	86	 2	 10.42	 16.66	 0.0	 0.0	 1	     1.1016	    -2.2923	 220.0	 3	     1.1100	     0.9500;
	87	 1	 11.57	 16.22	 0.0	 0.0	 1	     1.0894	    -3.1476	 220.0	 3	     1.1100	     0.9500;
	88	 1	 0.00	 0.00	 0.0	 0.0	 1	     1.0894	    -3.1480	 220.0	 3	     1.1100	     0.9500;
	89	 1	 0.00	 0.00	 0.0	 0.0	 1	     1.1001	    -1.2381	 220.0	 3	     1.1100	     0.9500;
	90	 1	 0.00	 0.00	 0.0	 0.0	 1	     1.1042	    -1.7979	 220.0	 3	     1.1100	     0.9500;
	91	 1	 0.00	 0.00	 0.0	 0.0	 1	     1.1026	    -0.6661	 220.0	 3	     1.1100	     0.9500;
	92	 1	 0.00	 0.00	 0.0	 0.0	 1	     1.0237	    -5.5065	 400.0	 3	     1.0500	     0.9500;
	93	 2	 10.42	 16.39	 0.0	 0.0	 1	     1.1056	    -0.2952	 220.0	 3	     1.1100	     0.9500;
	94	 1	 0.00	 0.00	 0.0	 0.0	 1	     1.1056	    -0.2968	 220.0	 3	     1.1100	     0.9500;
	95	 2	 7.19	 8.15	 0.0	 0.0	 1	     1.1075	    -0.4540	 220.0	 3	     1.1100	     0.9500;
	96	 1	 0.00	 0.00	 0.0	 0.0	 1	     1.1075	    -0.4584	 220.0	 3	     1.1100	     0.9500;
	97	 2	 9.06	 5.26	 0.0	 0.0	 1	     1.0967	    -4.8473	 220.0	 3	     1.1100	     0.9500;
	98	 1	 0.00	 0.00	 0.0	 0.0	 1	     1.0232	    -7.5544	 400.0	 3	     1.0500	     0.9500;
	99	 1	 0.00	 0.00	 0.0	 0.0	 1	     1.0233	    -7.5444	 400.0	 3	     1.0500	     0.9500;
	100	 1	 0.00	 0.00	 0.0	 0.0	 1	     1.0320	    -5.1585	 400.0	 3	     1.0500	     0.9500;
	101	 1	 0.00	 0.00	 0.0	 0.0	 1	     1.0320	    -5.1492	 400.0	 3	     1.0500	     0.9500;
	102	 1	 0.00	 0.00	 0.0	 0.0	 1	     1.1020	    -1.1475	 220.0	 3	     1.1100	     0.9500;
	103	 2	 18.87	 23.76	 0.0	 0.0	 1	     1.1067	    -1.9137	 220.0	 3	     1.1100	     0.9500;
	104	 2	 35.13	 46.11	 0.0	 0.0	 1	     1.1068	    -1.9078	 220.0	 3	     1.1100	     0.9500;
	105	 2	 35.24	 62.95	 0.0	 0.0	 1	     1.0167	    -4.8854	 400.0	 3	     1.0500	     0.9500;
	106	 1	 0.00	 0.00	 0.0	 0.0	 1	     1.0168	    -4.8991	 400.0	 3	     1.0500	     0.9500;
	107	 1	 0.00	 0.00	 0.0	 0.0	 1	     1.0836	    -4.5876	 220.0	 3	     1.1100	     0.9500;
	108	 1	 0.00	 0.00	 0.0	 0.0	 1	     1.0853	    -4.4169	 220.0	 3	     1.1100	     0.9500;
	109	 2	 1.04	 22.36	 0.0	 0.0	 1	     1.1100	     2.8144	 220.0	 3	     1.1100	     0.9500;
	110	 2	 1.04	 22.18	 0.0	 0.0	 1	     1.1100	     2.8159	 220.0	 3	     1.1100	     0.9500;
	111	 2	 27.63	 18.00	 0.0	 0.0	 1	     1.1066	   -14.3420	 220.0	 4	     1.1100	     0.9500;
	112	 1	 0.00	 0.00	 0.0	 0.0	 1	     1.1065	   -14.3359	 220.0	 4	     1.1100	     0.9500;
	113	 1	 0.00	 0.00	 0.0	 0.0	 1	     1.0622	   -26.8751	 220.0	 4	     1.1100	     0.9500;
	114	 1	 0.00	 0.00	 0.0	 0.0	 1	     1.0755	   -26.3378	 220.0	 4	     1.1100	     0.9500;
	115	 1	 0.00	 0.00	 0.0	 0.0	 1	     0.9834	   -20.2908	 400.0	 4	     1.0500	     0.9500;
	116	 1	 0.00	 0.00	 0.0	 0.0	 1	     0.9834	   -20.2812	 400.0	 4	     1.0500	     0.9500;
	117	 1	 0.00	 0.00	 0.0	 0.0	 1	     1.0727	   -30.0130	 220.0	 4	     1.1100	     0.9500;
	118	 1	 0.00	 0.00	 0.0	 0.0	 1	     1.0672	   -38.7245	 220.0	 4	     1.1100	     0.9500;
	119	 1	 0.00	 0.00	 0.0	 0.0	 1	     1.0672	   -38.7245	 220.0	 4	     1.1100	     0.9500;
	120	 1	 0.00	 0.00	 0.0	 0.0	 1	     1.0513	   -37.1907	 220.0	 4	     1.1100	     0.9500;
	121	 1	 0.00	 0.00	 0.0	 0.0	 1	     1.0700	   -26.9198	 220.0	 4	     1.1100	     0.9500;
	122	 1	 0.00	 0.00	 0.0	 0.0	 1	     1.0700	   -26.9198	 220.0	 4	     1.1100	     0.9500;
	123	 2	 5.74	 7.00	 0.0	 0.0	 1	     1.1097	   -19.4003	 220.0	 4	     1.1100	     0.9500;
	124	 2	 9.17	 17.00	 0.0	 0.0	 1	     1.1097	   -19.3947	 220.0	 4	     1.1100	     0.9500;
	125	 2	 37.24	 18.30	 0.0	 0.0	 1	     1.1062	   -35.5758	 220.0	 4	     1.1100	     0.9500;
	126	 1	 26.37	 15.90	 0.0	 0.0	 1	     1.1061	   -35.5631	 220.0	 4	     1.1100	     0.9500;
	127	 2	 26.82	 15.30	 0.0	 0.0	 1	     1.0330	   -27.7607	 400.0	 4	     1.0500	     0.9500;
	128	 1	 0.00	 0.00	 0.0	 0.0	 1	     1.0329	   -27.7688	 400.0	 4	     1.0500	     0.9500;
	129	 1	 0.00	 0.00	 0.0	 0.0	 1	     1.0452	   -32.5781	 220.0	 4	     1.1100	     0.9500;
	130	 1	 0.00	 0.00	 0.0	 0.0	 1	     1.0346	   -33.9541	 220.0	 4	     1.1100	     0.9500;
	131	 2	 71.63	 70.00	 0.0	 0.0	 1	     1.0993	   -24.0818	 220.0	 4	     1.1100	     0.9500;
	132	 2	 34.42	 45.00	 0.0	 0.0	 1	     1.0994	   -24.0968	 220.0	 4	     1.1100	     0.9500;
	133	 1	 0.00	 0.00	 0.0	 0.0	 1	     0.9953	   -19.6107	 400.0	 4	     1.0500	     0.9500;
	134	 1	 0.00	 0.00	 0.0	 0.0	 1	     0.9953	   -19.6094	 400.0	 4	     1.0500	     0.9500;
	135	 1	 0.00	 0.00	 0.0	 0.0	 1	     1.0672	   -38.6524	 220.0	 4	     1.1100	     0.9500;
	136	 1	 0.00	 0.00	 0.0	 0.0	 1	     1.0672	   -38.6524	 220.0	 4	     1.1100	     0.9500;
	137	 1	 0.00	 0.00	 0.0	 0.0	 1	     1.0000	   -16.6492	 400.0	 4	     1.0500	     0.9500;
	138	 1	 0.00	 0.00	 0.0	 0.0	 1	     1.0000	   -16.6492	 400.0	 4	     1.0500	     0.9500;
	139	 2	 34.63	 22.60	 0.0	 0.0	 1	     1.1100	   -19.6947	 220.0	 4	     1.1100	     0.9500;
	140	 2	 30.49	 19.60	 0.0	 0.0	 1	     1.1100	   -19.7021	 220.0	 4	     1.1100	     0.9500;
	141	 1	 0.00	 0.00	 0.0	 0.0	 1	     1.0487	   -35.3113	 220.0	 4	     1.1100	     0.9500;
	142	 1	 0.00	 0.00	 0.0	 0.0	 1	     1.0641	   -38.9290	 220.0	 4	     1.1100	     0.9500;
	143	 1	 0.00	 0.00	 0.0	 0.0	 1	     1.0713	   -31.5007	 220.0	 4	     1.1100	     0.9500;
	144	 1	 0.00	 0.00	 0.0	 0.0	 1	     1.0713	   -31.4998	 220.0	 4	     1.1100	     0.9500;
	145	 1	 0.00	 0.00	 0.0	 0.0	 1	     0.9766	   -31.1792	 400.0	 4	     1.0500	     0.9500;
	146	 1	 0.00	 0.00	 0.0	 0.0	 1	     0.9766	   -31.1792	 400.0	 4	     1.0500	     0.9500;
	147	 1	 0.00	 0.00	 0.0	 0.0	 1	     1.0443	   -30.6044	 220.0	 4	     1.1100	     0.9500;
	148	 1	 0.00	 0.00	 0.0	 0.0	 1	     1.0444	   -30.5987	 220.0	 4	     1.1100	     0.9500;
	149	 1	 0.00	 0.00	 0.0	 0.0	 1	     1.0679	   -32.1971	 220.0	 4	     1.1100	     0.9500;
	150	 1	 0.00	 0.00	 0.0	 0.0	 1	     1.0651	   -26.0520	 220.0	 4	     1.1100	     0.9500;
	151	 1	 0.00	 0.00	 0.0	 0.0	 1	     1.0651	   -26.0596	 220.0	 4	     1.1100	     0.9500;
	152	 1	 0.00	 0.00	 0.0	 0.0	 1	     1.0585	   -22.4711	 220.0	 4	     1.1100	     0.9500;
	153	 1	 0.00	 0.00	 0.0	 0.0	 1	     1.0585	   -22.4711	 220.0	 4	     1.1100	     0.9500;
	154	 1	 0.00	 0.00	 0.0	 0.0	 1	     1.0281	   -32.3988	 220.0	 4	     1.1100	     0.9500;
	155	 1	 0.00	 0.00	 0.0	 0.0	 1	     1.0547	   -27.8262	 220.0	 5	     1.1100	     0.9500;
	156	 1	 0.00	 0.00	 0.0	 0.0	 1	     1.1100	   -30.1996	 220.0	 5	     1.1100	     0.9500;
	157	 1	 0.00	 0.00	 0.0	 0.0	 1	     1.0250	   -28.3062	 400.0	 5	     1.0500	     0.9500;
	158	 1	 0.00	 0.00	 0.0	 0.0	 1	     1.0249	   -28.2991	 400.0	 5	     1.0500	     0.9500;
	159	 1	 0.00	 0.00	 0.0	 0.0	 1	     1.0282	   -25.1516	 400.0	 5	     1.0500	     0.9500;
	160	 1	 0.00	 0.00	 0.0	 0.0	 1	     1.0283	   -25.1595	 400.0	 5	     1.0500	     0.9500;
	161	 1	 0.00	 0.00	 0.0	 0.0	 1	     1.0552	   -31.0949	 220.0	 5	     1.1100	     0.9500;
	162	 1	 0.00	 0.00	 0.0	 0.0	 1	     1.0552	   -31.0959	 220.0	 5	     1.1100	     0.9500;
	163	 1	 0.00	 0.00	 0.0	 0.0	 1	     1.0871	   -28.6132	 220.0	 5	     1.1100	     0.9500;
	164	 1	 0.00	 0.00	 0.0	 0.0	 1	     1.0871	   -28.6146	 220.0	 5	     1.1100	     0.9500;
	165	 1	 0.00	 0.00	 0.0	 0.0	 1	     1.0015	   -22.6064	 400.0	 5	     1.0500	     0.9500;
	166	 1	 0.00	 0.00	 0.0	 0.0	 1	     1.0669	   -27.0630	 220.0	 5	     1.1100	     0.9500;
	167	 1	 0.00	 0.00	 0.0	 0.0	 1	     1.0669	   -27.0610	 220.0	 5	     1.1100	     0.9500;
	168	 1	 0.00	 0.00	 0.0	 0.0	 1	     1.0301	   -26.8939	 400.0	 5	     1.0500	     0.9500;
	169	 1	 0.00	 0.00	 0.0	 0.0	 1	     1.0301	   -26.9008	 400.0	 5	     1.0500	     0.9500;
	170	 1	 0.00	 0.00	 0.0	 0.0	 1	     1.0558	   -27.9407	 220.0	 5	     1.1100	     0.9500;
	171	 1	 0.00	 0.00	 0.0	 0.0	 1	     1.0559	   -27.9373	 220.0	 5	     1.1100	     0.9500;
	172	 1	 0.00	 0.00	 0.0	 0.0	 1	     1.0622	   -29.1196	 220.0	 5	     1.1100	     0.9500;
	173	 1	 0.00	 0.00	 0.0	 0.0	 1	     1.0622	   -29.1179	 220.0	 5	     1.1100	     0.9500;
	174	 1	 0.00	 0.00	 0.0	 0.0	 1	     1.0600	   -26.9019	 220.0	 5	     1.1100	     0.9500;
	175	 1	 0.00	 0.00	 0.0	 0.0	 1	     1.0599	   -26.9091	 220.0	 5	     1.1100	     0.9500;
	176	 2	 0.00	 40.00	 0.0	 0.0	 1	     1.0313	   -23.9182	 400.0	 5	     1.0500	     0.9500;
	177	 2	 0.00	 40.00	 0.0	 0.0	 1	     1.0315	   -23.9154	 400.0	 5	     1.0500	     0.9500;
	178	 1	 0.00	 0.00	 0.0	 0.0	 1	     1.0784	   -32.2778	 220.0	 5	     1.1100	     0.9500;
	179	 1	 0.00	 0.00	 0.0	 0.0	 1	     1.0785	   -32.2730	 220.0	 5	     1.1100	     0.9500;
	180	 2	 354.51	 49.60	 0.0	 0.0	 2	     1.0088	    -7.6785	 400.0	 6	     1.0500	     0.9500;
	181	 2	 0.00	 0.00	 0.0	 0.0	 3	     1.1072	    -9.8296	 220.0	 6	     1.1100	     0.9500;
	182	 2	 0.00	 0.00	 0.0	 0.0	 5	     0.9967	   -19.3151	 400.0	 6	     1.0500	     0.9500;
	183	 1	 150.00	 0.00	 0.0	 0.0	 3	     1.0500	   -11.2496	 400.0	 6	     1.0500	     0.9500;
	184	 2	 331.03	 50.30	 0.0	 0.0	 2	     1.0968	    -4.7574	 220.0	 6	     1.1100	     0.9500;
	185	 2	 378.07	 36.70	 0.0	 0.0	 2	     1.0080	    -8.4602	 400.0	 6	     1.0500	     0.9500;
	186	 2	 34.77	 1.00	 0.0	 0.0	 5	     1.1085	   -35.7076	 220.0	 6	     1.1100	     0.9500;
	187	 1	 7.43	 1.50	 0.0	 0.0	 1	     1.0661	   -25.6963	 110.0	 1	     1.1200	     0.9500;
	188	 1	 7.96	 1.00	 0.0	 0.0	 1	     1.0418	   -32.2621	 110.0	 1	     1.1200	     0.9500;
	189	 1	 10.19	 8.70	 0.0	 0.0	 1	     0.9972	   -29.5143	 110.0	 1	     1.1200	     0.9500;
	190	 1	 6.38	 1.50	 0.0	 0.0	 1	     1.1039	    -5.6845	 110.0	 1	     1.1200	     0.9500;
	191	 1	 6.38	 1.60	 0.0	 0.0	 1	     1.0850	    -6.8882	 110.0	 1	     1.1200	     0.9500;
	192	 2	 31.88	 12.00	 0.0	 0.0	 1	     1.1200	   -22.0811	 110.0	 1	     1.1200	     0.9500;
	193	 1	 15.94	 3.00	 0.0	 0.0	 1	     1.1189	   -21.9547	 110.0	 1	     1.1200	     0.9500;
	194	 1	 0.00	 0.00	 0.0	 0.0	 1	     1.1186	   -22.2477	 110.0	 1	     1.1200	     0.9500;
	195	 1	 8.49	 2.00	 0.0	 0.0	 1	     1.0830	   -26.7334	 110.0	 1	     1.1200	     0.9500;
	196	 2	 7.22	 1.50	 0.0	 0.0	 1	     1.0192	   -33.4042	 110.0	 1	     1.1200	     0.9500;
	197	 1	 7.22	 1.50	 0.0	 0.0	 1	     1.0731	   -15.4030	 110.0	 1	     1.1200	     0.9500;
	198	 2	 12.85	 1.70	 0.0	 0.0	 1	     1.0753	   -26.8935	 110.0	 1	     1.1200	     0.9500;
	199	 1	 1.49	 0.50	 0.0	 0.0	 1	     1.1078	    -8.2696	 110.0	 1	     1.1200	     0.9500;
	200	 1	 1.13	 0.50	 0.0	 0.0	 1	     1.0976	   -25.9499	 110.0	 1	     1.1200	     0.9500;
...
];

%% generator data
%	bus	Pg	Qg	Qmax	Qmin	Vg	mBase	status	Pmax	Pmin	Pc1	Pc2	Qc1min	Qc1max	Qc2min	Qc2max	ramp_agc	ramp_10	ramp_30	ramp_q	apf
mpc.gen = [
	10	 182.0	 247.0	 296.4	 -296.4	 1.0	 168.0	 1	 217	 35.0	 0.0	 0.0	 0.0	 0.0	 0.0	 0.0	 0.0	 0.0	 0.0	 0.0	 0.0; % NG
	16	 211.0	 146.0	 440.0	 -275.0	 1.0	 823.0	 1	 549	 60.0	 0.0	 0.0	 0.0	 0.0	 0.0	 0.0	 0.0	 0.0	 0.0	 0.0	 0.0; % COW
	17	 218.0	 125.0	 660.0	 -150.0	 1.0	 1234.0	 1	 287	 60.0	 0.0	 0.0	 0.0	 0.0	 0.0	 0.0	 0.0	 0.0	 0.0	 0.0	 0.0; % COW
	18	 212.0	 36.0	 1540.0	 -226.0	 1.0	 2879.0	 1	 451	 60.0	 0.0	 0.0	 0.0	 0.0	 0.0	 0.0	 0.0	 0.0	 0.0	 0.0	 0.0; % COW
	29	 168.0	 22.0	 240.0	 -118.0	 1.0	 511.0	 1	 236	 35.0	 0.0	 0.0	 0.0	 0.0	 0.0	 0.0	 0.0	 0.0	 0.0	 0.0	 0.0; % COW
	30	 165.0	 106.0	 333.0	 -333.0	 1.0	 511.0	 1	 666	 35.0	 0.0	 0.0	 0.0	 0.0	 0.0	 0.0	 0.0	 0.0	 0.0	 0.0	 0.0; % COW
	31	 266.0	 188.0	 415.0	 -415.0	 1.0	 420.0	 1	 830	 75.0	 0.0	 0.0	 0.0	 0.0	 0.0	 0.0	 0.0	 0.0	 0.0	 0.0	 0.0; % NUC
	41	 136.0	 10.0	 181.0	 -181.0	 1.0	 241.0	 1	 361	 35.0	 0.0	 0.0	 0.0	 0.0	 0.0	 0.0	 0.0	 0.0	 0.0	 0.0	 0.0; % NG
	42	 137.0	 6.0	 120.0	 -95.0	 1.0	 241.0	 1	 190	 35.0	 0.0	 0.0	 0.0	 0.0	 0.0	 0.0	 0.0	 0.0	 0.0	 0.0	 0.0; % NG
	43	 190.0	 9.0	 240.0	 -151.0	 1.0	 482.0	 1	 302	 35.0	 0.0	 0.0	 0.0	 0.0	 0.0	 0.0	 0.0	 0.0	 0.0	 0.0	 0.0; % NG
	44	 194.0	 -80.0	 329.0	 -329.0	 1.0	 482.0	 1	 658	 35.0	 0.0	 0.0	 0.0	 0.0	 0.0	 0.0	 0.0	 0.0	 0.0	 0.0	 0.0; % COW
	45	 127.0	 -5.0	 77.0	 -77.0	 1.0	 49.0	 1	 153	 19.57	 0.0	 0.0	 0.0	 0.0	 0.0	 0.0	 0.0	 0.0	 0.0	 0.0	 0.0; % NG
	63	 191.0	 53.0	 302.0	 -243.0	 1.0	 473.0	 1	 486	 72.5	 0.0	 0.0	 0.0	 0.0	 0.0	 0.0	 0.0	 0.0	 0.0	 0.0	 0.0; % COW
	64	 187.0	 34.0	 311.0	 -243.0	 1.0	 475.0	 1	 486	 72.5	 0.0	 0.0	 0.0	 0.0	 0.0	 0.0	 0.0	 0.0	 0.0	 0.0	 0.0; % COW
	67	 250.0	 368.0	 449.0	 -441.6	 1.0	 864.0	 1	 737	 110.0	 0.0	 0.0	 0.0	 0.0	 0.0	 0.0	 0.0	 0.0	 0.0	 0.0	 0.0; % COW
	83	 173.0	 36.0	 190.0	 -166.0	 1.0	 239.0	 1	 331	 70.0	 0.0	 0.0	 0.0	 0.0	 0.0	 0.0	 0.0	 0.0	 0.0	 0.0	 0.0; % NG
	84	 173.0	 20.0	 222.0	 -222.0	 1.0	 251.0	 1	 443	 70.0	 0.0	 0.0	 0.0	 0.0	 0.0	 0.0	 0.0	 0.0	 0.0	 0.0	 0.0; % NG
	85	 91.0	 54.0	 125.0	 -64.8	 1.0	 133.0	 1	 101	 20.0	 0.0	 0.0	 0.0	 0.0	 0.0	 0.0	 0.0	 0.0	 0.0	 0.0	 0.0; % NG
	86	 91.0	 89.0	 125.0	 -106.8	 1.0	 133.0	 1	 122	 20.0	 0.0	 0.0	 0.0	 0.0	 0.0	 0.0	 0.0	 0.0	 0.0	 0.0	 0.0; % COW
	93	 125.0	 5.0	 120.0	 -120.0	 1.0	 123.0	 1	 240	 40.0	 0.0	 0.0	 0.0	 0.0	 0.0	 0.0	 0.0	 0.0	 0.0	 0.0	 0.0; % COW
	95	 94.0	 -15.0	 86.0	 -86.0	 1.0	 105.0	 1	 172	 25.0	 0.0	 0.0	 0.0	 0.0	 0.0	 0.0	 0.0	 0.0	 0.0	 0.0	 0.0; % COW
	97	 100.0	 17.0	 87.0	 -87.0	 1.0	 105.0	 1	 174	 41.63	 0.0	 0.0	 0.0	 0.0	 0.0	 0.0	 0.0	 0.0	 0.0	 0.0	 0.0; % PEL
	103	 194.0	 -33.0	 193.0	 -193.0	 1.0	 239.0	 1	 385	 80.0	 0.0	 0.0	 0.0	 0.0	 0.0	 0.0	 0.0	 0.0	 0.0	 0.0	 0.0; % NG
	104	 173.0	 29.0	 379.0	 -177.0	 1.0	 490.0	 1	 215	 70.0	 0.0	 0.0	 0.0	 0.0	 0.0	 0.0	 0.0	 0.0	 0.0	 0.0	 0.0; % NG
	105	 319.0	 15.0	 353.0	 -194.0	 1.0	 502.0	 1	 387	 80.0	 0.0	 0.0	 0.0	 0.0	 0.0	 0.0	 0.0	 0.0	 0.0	 0.0	 0.0; % COW
	109	 117.0	 7.0	 74.0	 -74.0	 1.0	 277.0	 1	 148	 40.0	 0.0	 0.0	 0.0	 0.0	 0.0	 0.0	 0.0	 0.0	 0.0	 0.0	 0.0; % COW
	110	 116.0	 9.0	 120.0	 -120.0	 1.0	 280.0	 1	 240	 40.0	 0.0	 0.0	 0.0	 0.0	 0.0	 0.0	 0.0	 0.0	 0.0	 0.0	 0.0; % COW
	111	 93.0	 9.0	 270.0	 -89.0	 1.0	 401.0	 1	 178	 20.0	 0.0	 0.0	 0.0	 0.0	 0.0	 0.0	 0.0	 0.0	 0.0	 0.0	 0.0; % COW
	123	 68.0	 14.0	 95.0	 -95.0	 1.0	 98.0	 1	 190	 10.0	 0.0	 0.0	 0.0	 0.0	 0.0	 0.0	 0.0	 0.0	 0.0	 0.0	 0.0; % NG
	124	 93.0	 -3.0	 166.0	 -166.0	 1.0	 132.0	 1	 332	 22.5	 0.0	 0.0	 0.0	 0.0	 0.0	 0.0	 0.0	 0.0	 0.0	 0.0	 0.0; % COW
	125	 123.0	 307.0	 360.0	 -368.4	 1.0	 654.0	 1	 225	 35.0	 0.0	 0.0	 0.0	 0.0	 0.0	 0.0	 0.0	 0.0	 0.0	 0.0	 0.0; % COW
	127	 125.0	 258.0	 360.0	 -309.6	 1.0	 540.0	 1	 275	 35.0	 0.0	 0.0	 0.0	 0.0	 0.0	 0.0	 0.0	 0.0	 0.0	 0.0	 0.0; % COW
	131	 109.0	 79.0	 360.0	 -94.8	 1.0	 696.0	 1	 151	 35.0	 0.0	 0.0	 0.0	 0.0	 0.0	 0.0	 0.0	 0.0	 0.0	 0.0	 0.0; % COW
	132	 109.0	 37.0	 480.0	 -89.0	 1.0	 732.0	 1	 177	 35.0	 0.0	 0.0	 0.0	 0.0	 0.0	 0.0	 0.0	 0.0	 0.0	 0.0	 0.0; % COW
	139	 119.0	 14.0	 360.0	 -213.0	 1.0	 714.0	 1	 425	 35.0	 0.0	 0.0	 0.0	 0.0	 0.0	 0.0	 0.0	 0.0	 0.0	 0.0	 0.0; % COW
	140	 119.0	 2.0	 150.0	 -150.0	 1.0	 240.0	 1	 299	 35.0	 0.0	 0.0	 0.0	 0.0	 0.0	 0.0	 0.0	 0.0	 0.0	 0.0	 0.0; % NG
	176	 135.0	 -73.0	 220.0	 -191.0	 1.0	 430.0	 1	 381	 35.0	 0.0	 0.0	 0.0	 0.0	 0.0	 0.0	 0.0	 0.0	 0.0	 0.0	 0.0; % COW
	177	 134.0	 -13.0	 220.0	 -120.0	 1.0	 430.0	 1	 177	 35.0	 0.0	 0.0	 0.0	 0.0	 0.0	 0.0	 0.0	 0.0	 0.0	 0.0	 0.0; % COW
	180	 0.0	 109.0	 99999.0	 -99999.0	 1.0	 7485.0	 1	 0	 0.0	 0.0	 0.0	 0.0	 0.0	 0.0	 0.0	 0.0	 0.0	 0.0	 0.0	 0.0; % SYNC
	181	 199.0	 -16.0	 99999.0	 -99999.0	 1.0	 210.0	 1	 242	 87.0	 0.0	 0.0	 0.0	 0.0	 0.0	 0.0	 0.0	 0.0	 0.0	 0.0	 0.0; % NG
	182	 336.0	 349.0	 99999.0	 -99999.0	 1.0	 13465.0	 1	 426	 153.0	 0.0	 0.0	 0.0	 0.0	 0.0	 0.0	 0.0	 0.0	 0.0	 0.0	 0.0; % NG
	184	 0.0	 76.0	 99999.0	 -99999.0	 1.0	 8353.0	 1	 0	 0.0	 0.0	 0.0	 0.0	 0.0	 0.0	 0.0	 0.0	 0.0	 0.0	 0.0	 0.0; % SYNC
	185	 0.0	 94.0	 99999.0	 -99999.0	 1.0	 14254.0	 1	 0	 0.0	 0.0	 0.0	 0.0	 0.0	 0.0	 0.0	 0.0	 0.0	 0.0	 0.0	 0.0; % SYNC
	186	 0.0	 -71.0	 99999.0	 -99999.0	 1.0	 7401.0	 1	 0	 0.0	 0.0	 0.0	 0.0	 0.0	 0.0	 0.0	 0.0	 0.0	 0.0	 0.0	 0.0; % SYNC
	192	 130.0	 -12.0	 72.0	 -72.0	 1.0	 114.0	 1	 144	 45.125	 0.0	 0.0	 0.0	 0.0	 0.0	 0.0	 0.0	 0.0	 0.0	 0.0	 0.0; % NG
	196	 22.0	 -2.0	 31.0	 -31.0	 1.0	 1.0	 1	 61	 0.43	 0.0	 0.0	 0.0	 0.0	 0.0	 0.0	 0.0	 0.0	 0.0	 0.0	 0.0; % PEL
	198	 55.0	 4.0	 30.0	 -30.0	 1.0	 1.0	 1	 59	 0.38	 0.0	 0.0	 0.0	 0.0	 0.0	 0.0	 0.0	 0.0	 0.0	 0.0	 0.0; % NG
	205	 42.0	 -6.0	 53.0	 -53.0	 1.0	 18.0	 1	 105	 7.125	 0.0	 0.0	 0.0	 0.0	 0.0	 0.0	 0.0	 0.0	 0.0	 0.0	 0.0; % NG
	213	 113.0	 30.0	 98.0	 -98.0	 1.0	 13.0	 1	 196	 5.225	 0.0	 0.0	 0.0	 0.0	 0.0	 0.0	 0.0	 0.0	 0.0	 0.0	 0.0; % PEL
	264	 42.0	 -4.0	 24.0	 -24.0	 1.0	 3.0	 1	 47	 1.19	 0.0	 0.0	 0.0	 0.0	 0.0	 0.0	 0.0	 0.0	 0.0	 0.0	 0.0; % PEL
	269	 56.0	 -24.0	 63.0	 -63.0	 1.0	 7.0	 1	 125	 2.85	 0.0	 0.0	 0.0	 0.0	 0.0	 0.0	 0.0	 0.0	 0.0	 0.0	 0.0; % NG
	277	 127.0	 23.0	 95.0	 -95.0	 1.0	 84.0	 1	 189	 33.25	 0.0	 0.0	 0.0	 0.0	 0.0	 0.0	 0.0	 0.0	 0.0	 0.0	 0.0; % PEL
	278	 113.0	 11.0	 104.0	 -104.0	 1.0	 72.0	 1	 208	 28.5	 0.0	 0.0	 0.0	 0.0	 0.0	 0.0	 0.0	 0.0	 0.0	 0.0	 0.0; % NG
	279	 86.0	 8.0	 110.0	 -110.0	 1.0	 72.0	 1	 219	 28.5	 0.0	 0.0	 0.0	 0.0	 0.0	 0.0	 0.0	 0.0	 0.0	 0.0	 0.0; % PEL
	281	 151.0	 15.0	 150.0	 -150.0	 1.0	 144.0	 1	 300	 57.0	 0.0	 0.0	 0.0	 0.0	 0.0	 0.0	 0.0	 0.0	 0.0	 0.0	 0.0; % NG
	282	 100.0	 -11.0	 55.0	 -55.0	 1.0	 48.0	 1	 110	 19.0	 0.0	 0.0	 0.0	 0.0	 0.0	 0.0	 0.0	 0.0	 0.0	 0.0	 0.0; % NG
	289	 54.0	 11.0	 127.0	 -127.0	 1.0	 3.0	 1	 253	 1.19	 0.0	 0.0	 0.0	 0.0	 0.0	 0.0	 0.0	 0.0	 0.0	 0.0	 0.0; % PEL
	294	 61.0	 12.0	 32.0	 -32.0	 1.0	 2.0	 1	 63	 0.95	 0.0	 0.0	 0.0	 0.0	 0.0	 0.0	 0.0	 0.0	 0.0	 0.0	 0.0; % PEL
	314	 45.0	 -7.0	 28.0	 -28.0	 1.0	 2.0	 1	 56	 0.715	 0.0	 0.0	 0.0	 0.0	 0.0	 0.0	 0.0	 0.0	 0.0	 0.0	 0.0; % PEL
	328	 77.0	 -3.0	 143.0	 -143.0	 1.0	 53.0	 1	 286	 20.9	 0.0	 0.0	 0.0	 0.0	 0.0	 0.0	 0.0	 0.0	 0.0	 0.0	 0.0; % NG
	329	 75.0	 21.0	 69.0	 -69.0	 1.0	 53.0	 1	 138	 20.9	 0.0	 0.0	 0.0	 0.0	 0.0	 0.0	 0.0	 0.0	 0.0	 0.0	 0.0; % NG
	330	 80.0	 -18.0	 62.0	 -62.0	 1.0	 53.0	 1	 124	 20.9	 0.0	 0.0	 0.0	 0.0	 0.0	 0.0	 0.0	 0.0	 0.0	 0.0	 0.0; % NG
	331	 80.0	 -3.0	 74.0	 -74.0	 1.0	 52.0	 1	 147	 20.425	 0.0	 0.0	 0.0	 0.0	 0.0	 0.0	 0.0	 0.0	 0.0	 0.0	 0.0; % NG
	334	 38.0	 6.0	 26.0	 -26.0	 1.0	 2.0	 1	 52	 0.715	 0.0	 0.0	 0.0	 0.0	 0.0	 0.0	 0.0	 0.0	 0.0	 0.0	 0.0; % PEL
	346	 117.0	 -64.0	 120.0	 -80.0	 1.0	 180.0	 1	 159	 35.0	 0.0	 0.0	 0.0	 0.0	 0.0	 0.0	 0.0	 0.0	 0.0	 0.0	 0.0; % NG
	347	 103.0	 -45.0	 81.0	 -81.0	 1.0	 12.0	 1	 162	 5.0	 0.0	 0.0	 0.0	 0.0	 0.0	 0.0	 0.0	 0.0	 0.0	 0.0	 0.0; % NG
	359	 46.0	 -21.0	 53.0	 -53.0	 1.0	 2.0	 1	 106	 0.715	 0.0	 0.0	 0.0	 0.0	 0.0	 0.0	 0.0	 0.0	 0.0	 0.0	 0.0; % PEL
	365	 51.0	 -14.0	 76.0	 -76.0	 1.0	 6.0	 1	 152	 2.425	 0.0	 0.0	 0.0	 0.0	 0.0	 0.0	 0.0	 0.0	 0.0	 0.0	 0.0; % PEL
	382	 39.0	 5.0	 32.0	 -32.0	 1.0	 10.0	 1	 64	 3.8	 0.0	 0.0	 0.0	 0.0	 0.0	 0.0	 0.0	 0.0	 0.0	 0.0	 0.0; % PEL
	383	 58.0	 16.0	 48.0	 -48.0	 1.0	 10.0	 1	 95	 3.8	 0.0	 0.0	 0.0	 0.0	 0.0	 0.0	 0.0	 0.0	 0.0	 0.0	 0.0; % NG
	385	 83.0	 18.0	 125.0	 -125.0	 1.0	 7.0	 1	 249	 2.85	 0.0	 0.0	 0.0	 0.0	 0.0	 0.0	 0.0	 0.0	 0.0	 0.0	 0.0; % NG
	390	 47.0	 7.0	 51.0	 -51.0	 1.0	 5.0	 1	 101	 2.14	 0.0	 0.0	 0.0	 0.0	 0.0	 0.0	 0.0	 0.0	 0.0	 0.0	 0.0; % PEL
	395	 49.0	 -33.0	 39.6	 -39.6	 1.0	 12.0	 1	 63	 4.75	 0.0	 0.0	 0.0	 0.0	 0.0	 0.0	 0.0	 0.0	 0.0	 0.0	 0.0; % NG
	404	 60.0	 10.0	 32.0	 -32.0	 1.0	 4.0	 1	 64	 1.425	 0.0	 0.0	 0.0	 0.0	 0.0	 0.0	 0.0	 0.0	 0.0	 0.0	 0.0; % PEL
	426	 80.0	 24.0	 54.0	 -54.0	 1.0	 4.0	 1	 108	 1.52	 0.0	 0.0	 0.0	 0.0	 0.0	 0.0	 0.0	 0.0	 0.0	 0.0	 0.0; % NG
	444	 59.0	 -11.0	 38.0	 -38.0	 1.0	 1.0	 1	 76	 0.475	 0.0	 0.0	 0.0	 0.0	 0.0	 0.0	 0.0	 0.0	 0.0	 0.0	 0.0; % NG
	451	 67.0	 21.0	 61.0	 -61.0	 1.0	 5.0	 1	 122	 2.14	 0.0	 0.0	 0.0	 0.0	 0.0	 0.0	 0.0	 0.0	 0.0	 0.0	 0.0; % NG
	482	 130.0	 8.0	 66.0	 -66.0	 1.0	 1.0	 1	 132	 0.475	 0.0	 0.0	 0.0	 0.0	 0.0	 0.0	 0.0	 0.0	 0.0	 0.0	 0.0; % PEL
	492	 50.0	 -13.0	 77.0	 -77.0	 1.0	 2.0	 1	 153	 0.95	 0.0	 0.0	 0.0	 0.0	 0.0	 0.0	 0.0	 0.0	 0.0	 0.0	 0.0; % PEL
	493	 243.0	 8.0	 201.0	 -201.0	 1.0	 281.0	 1	 402	 111.15	 0.0	 0.0	 0.0	 0.0	 0.0	 0.0	 0.0	 0.0	 0.0	 0.0	 0.0; % COW
	494	 277.0	 81.0	 185.0	 -185.0	 1.0	 281.0	 1	 369	 111.15	 0.0	 0.0	 0.0	 0.0	 0.0	 0.0	 0.0	 0.0	 0.0	 0.0	 0.0; % NG
	514	 211.0	 40.0	 128.0	 -128.0	 1.0	 138.0	 1	 256	 54.625	 0.0	 0.0	 0.0	 0.0	 0.0	 0.0	 0.0	 0.0	 0.0	 0.0	 0.0; % COW
	515	 252.0	 145.0	 174.0	 -174.0	 1.0	 138.0	 1	 285	 54.625	 0.0	 0.0	 0.0	 0.0	 0.0	 0.0	 0.0	 0.0	 0.0	 0.0	 0.0; % NG
	525	 106.0	 3.0	 138.0	 -138.0	 1.0	 7.0	 1	 276	 2.85	 0.0	 0.0	 0.0	 0.0	 0.0	 0.0	 0.0	 0.0	 0.0	 0.0	 0.0; % NG
	536	 57.0	 12.0	 49.0	 -49.0	 1.0	 7.0	 1	 97	 2.85	 0.0	 0.0	 0.0	 0.0	 0.0	 0.0	 0.0	 0.0	 0.0	 0.0	 0.0; % NG
	537	 43.0	 1.0	 59.0	 -59.0	 1.0	 4.0	 1	 118	 1.665	 0.0	 0.0	 0.0	 0.0	 0.0	 0.0	 0.0	 0.0	 0.0	 0.0	 0.0; % NG
	556	 41.0	 -11.0	 28.0	 -28.0	 1.0	 3.0	 1	 56	 1.285	 0.0	 0.0	 0.0	 0.0	 0.0	 0.0	 0.0	 0.0	 0.0	 0.0	 0.0; % PEL
	580	 56.0	 -19.0	 39.0	 -39.0	 1.0	 2.0	 1	 78	 0.76	 0.0	 0.0	 0.0	 0.0	 0.0	 0.0	 0.0	 0.0	 0.0	 0.0	 0.0; % PEL
	584	 28.0	 -3.0	 27.0	 -27.0	 1.0	 3.0	 1	 54	 1.285	 0.0	 0.0	 0.0	 0.0	 0.0	 0.0	 0.0	 0.0	 0.0	 0.0	 0.0; % PEL
	585	 31.0	 2.0	 16.0	 -16.0	 1.0	 5.0	 1	 31	 1.9	 0.0	 0.0	 0.0	 0.0	 0.0	 0.0	 0.0	 0.0	 0.0	 0.0	 0.0; % NG
	607	 52.0	 -8.0	 68.0	 -68.0	 1.0	 1.0	 1	 135	 0.38	 0.0	 0.0	 0.0	 0.0	 0.0	 0.0	 0.0	 0.0	 0.0	 0.0	 0.0; % PEL
	612	 162.0	 51.0	 192.0	 -192.0	 1.0	 256.0	 1	 384	 35.0	 0.0	 0.0	 0.0	 0.0	 0.0	 0.0	 0.0	 0.0	 0.0	 0.0	 0.0; % NG
	613	 165.0	 103.0	 158.0	 -158.0	 1.0	 256.0	 1	 316	 35.0	 0.0	 0.0	 0.0	 0.0	 0.0	 0.0	 0.0	 0.0	 0.0	 0.0	 0.0; % NG
	615	 146.0	 3.0	 132.0	 -132.0	 1.0	 2.0	 1	 264	 0.665	 0.0	 0.0	 0.0	 0.0	 0.0	 0.0	 0.0	 0.0	 0.0	 0.0	 0.0; % NG
	623	 47.0	 7.0	 76.0	 -76.0	 1.0	 9.0	 1	 152	 3.61	 0.0	 0.0	 0.0	 0.0	 0.0	 0.0	 0.0	 0.0	 0.0	 0.0	 0.0; % PEL
	639	 67.0	 -6.0	 79.0	 -79.0	 1.0	 12.0	 1	 157	 4.56	 0.0	 0.0	 0.0	 0.0	 0.0	 0.0	 0.0	 0.0	 0.0	 0.0	 0.0; % NG
	651	 65.0	 3.0	 86.0	 -86.0	 1.0	 6.0	 1	 172	 2.235	 0.0	 0.0	 0.0	 0.0	 0.0	 0.0	 0.0	 0.0	 0.0	 0.0	 0.0; % NG
	654	 46.0	 -5.0	 28.0	 -28.0	 1.0	 2.0	 1	 55	 0.665	 0.0	 0.0	 0.0	 0.0	 0.0	 0.0	 0.0	 0.0	 0.0	 0.0	 0.0; % PEL
	664	 56.0	 14.0	 43.0	 -43.0	 1.0	 7.0	 1	 85	 2.945	 0.0	 0.0	 0.0	 0.0	 0.0	 0.0	 0.0	 0.0	 0.0	 0.0	 0.0; % PEL
	670	 59.0	 4.0	 66.0	 -66.0	 1.0	 3.0	 1	 131	 1.285	 0.0	 0.0	 0.0	 0.0	 0.0	 0.0	 0.0	 0.0	 0.0	 0.0	 0.0; % PEL
	674	 33.0	 6.0	 42.0	 -42.0	 1.0	 1.0	 1	 84	 0.475	 0.0	 0.0	 0.0	 0.0	 0.0	 0.0	 0.0	 0.0	 0.0	 0.0	 0.0; % PEL
	688	 116.0	 43.0	 120.0	 -87.0	 1.0	 242.0	 1	 173	 35.0	 0.0	 0.0	 0.0	 0.0	 0.0	 0.0	 0.0	 0.0	 0.0	 0.0	 0.0; % NG
	692	 59.0	 -10.0	 34.0	 -34.0	 1.0	 2.0	 1	 68	 0.665	 0.0	 0.0	 0.0	 0.0	 0.0	 0.0	 0.0	 0.0	 0.0	 0.0	 0.0; % PEL
	699	 79.0	 17.0	 40.0	 -40.0	 1.0	 5.0	 1	 79	 1.805	 0.0	 0.0	 0.0	 0.0	 0.0	 0.0	 0.0	 0.0	 0.0	 0.0	 0.0; % NG
	712	 58.0	 20.0	 32.0	 -32.0	 1.0	 1.0	 1	 64	 0.57	 0.0	 0.0	 0.0	 0.0	 0.0	 0.0	 0.0	 0.0	 0.0	 0.0	 0.0; % PEL
	730	 77.0	 -21.0	 41.0	 -41.0	 1.0	 8.0	 1	 82	 3.28	 0.0	 0.0	 0.0	 0.0	 0.0	 0.0	 0.0	 0.0	 0.0	 0.0	 0.0; % NG
	732	 36.0	 1.0	 53.0	 -53.0	 1.0	 1.0	 1	 106	 0.525	 0.0	 0.0	 0.0	 0.0	 0.0	 0.0	 0.0	 0.0	 0.0	 0.0	 0.0; % NG
	735	 52.0	 -6.0	 85.0	 -85.0	 1.0	 5.0	 1	 169	 1.95	 0.0	 0.0	 0.0	 0.0	 0.0	 0.0	 0.0	 0.0	 0.0	 0.0	 0.0; % NG
	740	 55.0	 -31.0	 68.0	 -68.0	 1.0	 5.0	 1	 135	 1.9	 0.0	 0.0	 0.0	 0.0	 0.0	 0.0	 0.0	 0.0	 0.0	 0.0	 0.0; % NG
	744	 142.0	 16.0	 150.0	 -150.0	 1.0	 161.0	 1	 299	 63.65	 0.0	 0.0	 0.0	 0.0	 0.0	 0.0	 0.0	 0.0	 0.0	 0.0	 0.0; % NG
	754	 86.0	 4.0	 192.0	 -192.0	 1.0	 54.0	 1	 384	 5.0	 0.0	 0.0	 0.0	 0.0	 0.0	 0.0	 0.0	 0.0	 0.0	 0.0	 0.0; % NG
	755	 119.0	 29.0	 80.0	 -70.0	 1.0	 110.0	 1	 140	 42.5	 0.0	 0.0	 0.0	 0.0	 0.0	 0.0	 0.0	 0.0	 0.0	 0.0	 0.0; % NG
	760	 43.0	 2.0	 102.0	 -102.0	 1.0	 4.0	 1	 204	 1.475	 0.0	 0.0	 0.0	 0.0	 0.0	 0.0	 0.0	 0.0	 0.0	 0.0	 0.0; % NG
	766	 29.0	 1.0	 25.0	 -25.0	 1.0	 3.0	 1	 50	 1.0	 0.0	 0.0	 0.0	 0.0	 0.0	 0.0	 0.0	 0.0	 0.0	 0.0	 0.0; % PEL
	784	 67.0	 3.0	 44.0	 -44.0	 1.0	 1.0	 1	 87	 0.335	 0.0	 0.0	 0.0	 0.0	 0.0	 0.0	 0.0	 0.0	 0.0	 0.0	 0.0; % PEL
	790	 87.0	 24.0	 81.0	 -81.0	 1.0	 60.0	 1	 161	 23.655	 0.0	 0.0	 0.0	 0.0	 0.0	 0.0	 0.0	 0.0	 0.0	 0.0	 0.0; % NG
	795	 48.0	 4.0	 50.0	 -50.0	 1.0	 2.0	 1	 100	 0.9	 0.0	 0.0	 0.0	 0.0	 0.0	 0.0	 0.0	 0.0	 0.0	 0.0	 0.0; % PEL
	798	 25.0	 -4.0	 15.0	 -15.0	 1.0	 4.0	 1	 29	 1.42	 0.0	 0.0	 0.0	 0.0	 0.0	 0.0	 0.0	 0.0	 0.0	 0.0	 0.0; % PEL
	814	 64.0	 15.0	 87.0	 -87.0	 1.0	 54.0	 1	 173	 21.335	 0.0	 0.0	 0.0	 0.0	 0.0	 0.0	 0.0	 0.0	 0.0	 0.0	 0.0; % NG
	834	 58.0	 58.0	 83.0	 -69.6	 1.0	 110.0	 1	 79	 11.5	 0.0	 0.0	 0.0	 0.0	 0.0	 0.0	 0.0	 0.0	 0.0	 0.0	 0.0; % NG
	878	 43.0	 9.0	 29.0	 -29.0	 1.0	 4.0	 1	 57	 1.42	 0.0	 0.0	 0.0	 0.0	 0.0	 0.0	 0.0	 0.0	 0.0	 0.0	 0.0; % PEL
	884	 34.0	 4.0	 25.0	 -25.0	 1.0	 3.0	 1	 49	 1.185	 0.0	 0.0	 0.0	 0.0	 0.0	 0.0	 0.0	 0.0	 0.0	 0.0	 0.0; % PEL
	892	 76.0	 27.0	 60.0	 -60.0	 1.0	 38.0	 1	 119	 15.14	 0.0	 0.0	 0.0	 0.0	 0.0	 0.0	 0.0	 0.0	 0.0	 0.0	 0.0; % NG
	895	 35.0	 10.0	 56.0	 -56.0	 1.0	 11.0	 1	 111	 4.255	 0.0	 0.0	 0.0	 0.0	 0.0	 0.0	 0.0	 0.0	 0.0	 0.0	 0.0; % NG
	901	 49.0	 15.0	 50.0	 -50.0	 1.0	 4.0	 1	 99	 1.75	 0.0	 0.0	 0.0	 0.0	 0.0	 0.0	 0.0	 0.0	 0.0	 0.0	 0.0; % NG
	910	 28.0	 10.0	 19.0	 -19.0	 1.0	 6.0	 1	 37	 2.175	 0.0	 0.0	 0.0	 0.0	 0.0	 0.0	 0.0	 0.0	 0.0	 0.0	 0.0; % NG
	911	 298.0	 -6.0	 224.0	 -205.0	 1.0	 415.0	 1	 410	 140.0	 0.0	 0.0	 0.0	 0.0	 0.0	 0.0	 0.0	 0.0	 0.0	 0.0	 0.0; % NG
	912	 299.0	 24.0	 224.0	 -167.0	 1.0	 415.0	 1	 333	 140.0	 0.0	 0.0	 0.0	 0.0	 0.0	 0.0	 0.0	 0.0	 0.0	 0.0	 0.0; % NG
	914	 37.0	 9.0	 23.0	 -23.0	 1.0	 19.0	 1	 46	 7.565	 0.0	 0.0	 0.0	 0.0	 0.0	 0.0	 0.0	 0.0	 0.0	 0.0	 0.0; % PEL
	917	 52.0	 5.0	 45.0	 -45.0	 1.0	 3.0	 1	 89	 0.995	 0.0	 0.0	 0.0	 0.0	 0.0	 0.0	 0.0	 0.0	 0.0	 0.0	 0.0; % PEL
	919	 73.0	 18.0	 42.0	 -42.0	 1.0	 26.0	 1	 84	 10.405	 0.0	 0.0	 0.0	 0.0	 0.0	 0.0	 0.0	 0.0	 0.0	 0.0	 0.0; % PEL
	920	 61.0	 10.0	 72.0	 -72.0	 1.0	 2.0	 1	 144	 0.945	 0.0	 0.0	 0.0	 0.0	 0.0	 0.0	 0.0	 0.0	 0.0	 0.0	 0.0; % PEL
	929	 96.0	 9.0	 54.0	 -54.0	 1.0	 77.0	 1	 107	 30.27	 0.0	 0.0	 0.0	 0.0	 0.0	 0.0	 0.0	 0.0	 0.0	 0.0	 0.0; % NG
	959	 31.0	 5.0	 20.0	 -20.0	 1.0	 3.0	 1	 40	 1.185	 0.0	 0.0	 0.0	 0.0	 0.0	 0.0	 0.0	 0.0	 0.0	 0.0	 0.0; % PEL
	968	 24.0	 -2.0	 35.0	 -35.0	 1.0	 1.0	 1	 70	 0.335	 0.0	 0.0	 0.0	 0.0	 0.0	 0.0	 0.0	 0.0	 0.0	 0.0	 0.0; % PEL
	993	 25.0	 2.0	 29.0	 -29.0	 1.0	 5.0	 1	 57	 1.89	 0.0	 0.0	 0.0	 0.0	 0.0	 0.0	 0.0	 0.0	 0.0	 0.0	 0.0; % NG
	994	 23.0	 -2.0	 13.0	 -13.0	 1.0	 2.0	 1	 26	 0.945	 0.0	 0.0	 0.0	 0.0	 0.0	 0.0	 0.0	 0.0	 0.0	 0.0	 0.0; % PEL
	995	 52.0	 42.0	 64.0	 -64.0	 1.0	 60.0	 1	 128	 10.0	 0.0	 0.0	 0.0	 0.0	 0.0	 0.0	 0.0	 0.0	 0.0	 0.0	 0.0; % COW
	996	 46.0	 20.0	 63.0	 -63.0	 1.0	 60.0	 1	 126	 10.0	 0.0	 0.0	 0.0	 0.0	 0.0	 0.0	 0.0	 0.0	 0.0	 0.0	 0.0; % NG
	997	 107.0	 55.0	 66.0	 -66.0	 1.0	 60.0	 1	 131	 10.0	 0.0	 0.0	 0.0	 0.0	 0.0	 0.0	 0.0	 0.0	 0.0	 0.0	 0.0; % NG
	1004	 83.0	 -15.0	 103.0	 -103.0	 1.0	 5.0	 1	 205	 2.035	 0.0	 0.0	 0.0	 0.0	 0.0	 0.0	 0.0	 0.0	 0.0	 0.0	 0.0; % NG
	1024	 22.0	 -11.0	 27.0	 -27.0	 1.0	 0.0	 1	 54	 0.05	 0.0	 0.0	 0.0	 0.0	 0.0	 0.0	 0.0	 0.0	 0.0	 0.0	 0.0; % NG
	1027	 46.0	 11.0	 33.0	 -33.0	 1.0	 30.0	 1	 66	 11.83	 0.0	 0.0	 0.0	 0.0	 0.0	 0.0	 0.0	 0.0	 0.0	 0.0	 0.0; % NG
	1028	 29.0	 2.0	 34.0	 -34.0	 1.0	 4.0	 1	 67	 1.42	 0.0	 0.0	 0.0	 0.0	 0.0	 0.0	 0.0	 0.0	 0.0	 0.0	 0.0; % PEL
	1029	 65.0	 16.0	 41.0	 -41.0	 1.0	 30.0	 1	 82	 11.83	 0.0	 0.0	 0.0	 0.0	 0.0	 0.0	 0.0	 0.0	 0.0	 0.0	 0.0; % PEL
	1053	 82.0	 31.0	 57.0	 -57.0	 1.0	 72.0	 1	 113	 28.385	 0.0	 0.0	 0.0	 0.0	 0.0	 0.0	 0.0	 0.0	 0.0	 0.0	 0.0; % PEL
	1054	 104.0	 51.0	 66.0	 -66.0	 1.0	 36.0	 1	 132	 14.195	 0.0	 0.0	 0.0	 0.0	 0.0	 0.0	 0.0	 0.0	 0.0	 0.0	 0.0; % PEL
	1105	 37.0	 -2.0	 78.0	 -78.0	 1.0	 10.0	 1	 155	 3.785	 0.0	 0.0	 0.0	 0.0	 0.0	 0.0	 0.0	 0.0	 0.0	 0.0	 0.0; % COW
	1106	 63.0	 -1.0	 67.0	 -67.0	 1.0	 28.0	 1	 134	 10.88	 0.0	 0.0	 0.0	 0.0	 0.0	 0.0	 0.0	 0.0	 0.0	 0.0	 0.0; % NG
	1107	 67.0	 16.0	 46.0	 -46.0	 1.0	 13.0	 1	 92	 5.015	 0.0	 0.0	 0.0	 0.0	 0.0	 0.0	 0.0	 0.0	 0.0	 0.0	 0.0; % NG
	1138	 94.0	 38.0	 60.0	 -60.0	 1.0	 54.0	 1	 120	 21.29	 0.0	 0.0	 0.0	 0.0	 0.0	 0.0	 0.0	 0.0	 0.0	 0.0	 0.0; % PEL
	1140	 163.0	 65.0	 199.0	 -87.0	 1.0	 252.0	 1	 174	 35.0	 0.0	 0.0	 0.0	 0.0	 0.0	 0.0	 0.0	 0.0	 0.0	 0.0	 0.0; % NG
	1141	 90.0	 43.0	 190.0	 -94.0	 1.0	 251.0	 1	 188	 35.0	 0.0	 0.0	 0.0	 0.0	 0.0	 0.0	 0.0	 0.0	 0.0	 0.0	 0.0; % NG
	1175	 72.0	 14.0	 82.0	 -82.0	 1.0	 45.0	 1	 164	 17.975	 0.0	 0.0	 0.0	 0.0	 0.0	 0.0	 0.0	 0.0	 0.0	 0.0	 0.0; % NG
	1182	 77.0	 6.0	 125.0	 -83.0	 1.0	 133.0	 1	 165	 20.0	 0.0	 0.0	 0.0	 0.0	 0.0	 0.0	 0.0	 0.0	 0.0	 0.0	 0.0; % NG
	1183	 74.0	 30.0	 125.0	 -119.0	 1.0	 133.0	 1	 237	 20.0	 0.0	 0.0	 0.0	 0.0	 0.0	 0.0	 0.0	 0.0	 0.0	 0.0	 0.0; % NG
	1184	 120.0	 67.0	 138.0	 -138.0	 1.0	 133.0	 1	 275	 20.0	 0.0	 0.0	 0.0	 0.0	 0.0	 0.0	 0.0	 0.0	 0.0	 0.0	 0.0; % NG
	1191	 121.0	 14.0	 129.0	 -67.0	 1.0	 128.0	 1	 134	 50.615	 0.0	 0.0	 0.0	 0.0	 0.0	 0.0	 0.0	 0.0	 0.0	 0.0	 0.0; % NG
	1192	 124.0	 51.0	 125.0	 -121.0	 1.0	 123.0	 1	 241	 40.0	 0.0	 0.0	 0.0	 0.0	 0.0	 0.0	 0.0	 0.0	 0.0	 0.0	 0.0; % COW
	1201	 120.0	 37.0	 90.0	 -61.0	 1.0	 120.0	 1	 121	 47.305	 0.0	 0.0	 0.0	 0.0	 0.0	 0.0	 0.0	 0.0	 0.0	 0.0	 0.0; % NG
	1202	 120.0	 26.0	 90.0	 -78.0	 1.0	 120.0	 1	 156	 47.305	 0.0	 0.0	 0.0	 0.0	 0.0	 0.0	 0.0	 0.0	 0.0	 0.0	 0.0; % NG
	1203	 125.0	 32.0	 90.0	 -89.0	 1.0	 120.0	 1	 177	 47.305	 0.0	 0.0	 0.0	 0.0	 0.0	 0.0	 0.0	 0.0	 0.0	 0.0	 0.0; % NG
	1232	 86.0	 22.0	 64.0	 -64.0	 1.0	 62.0	 1	 127	 24.6	 0.0	 0.0	 0.0	 0.0	 0.0	 0.0	 0.0	 0.0	 0.0	 0.0	 0.0; % NG
	1233	 159.0	 20.0	 172.0	 -172.0	 1.0	 18.0	 1	 343	 7.095	 0.0	 0.0	 0.0	 0.0	 0.0	 0.0	 0.0	 0.0	 0.0	 0.0	 0.0; % NG
	1244	 70.0	 32.0	 108.0	 -108.0	 1.0	 23.0	 1	 215	 8.985	 0.0	 0.0	 0.0	 0.0	 0.0	 0.0	 0.0	 0.0	 0.0	 0.0	 0.0; % NG
	1247	 37.0	 14.0	 21.0	 -21.0	 1.0	 19.0	 1	 41	 7.565	 0.0	 0.0	 0.0	 0.0	 0.0	 0.0	 0.0	 0.0	 0.0	 0.0	 0.0; % NG
	1250	 210.0	 56.0	 405.0	 -405.0	 1.0	 237.0	 1	 809	 93.665	 0.0	 0.0	 0.0	 0.0	 0.0	 0.0	 0.0	 0.0	 0.0	 0.0	 0.0; % NG
	1268	 72.0	 22.0	 71.0	 -71.0	 1.0	 1.0	 1	 141	 0.24	 0.0	 0.0	 0.0	 0.0	 0.0	 0.0	 0.0	 0.0	 0.0	 0.0	 0.0; % PEL
	1316	 11.0	 1.0	 13.0	 -13.0	 1.0	 1.0	 1	 25	 0.475	 0.0	 0.0	 0.0	 0.0	 0.0	 0.0	 0.0	 0.0	 0.0	 0.0	 0.0; % PEL
	1325	 33.0	 -3.0	 24.0	 -24.0	 1.0	 2.0	 1	 47	 0.66	 0.0	 0.0	 0.0	 0.0	 0.0	 0.0	 0.0	 0.0	 0.0	 0.0	 0.0; % PEL
	1349	 29.0	 2.0	 20.0	 -20.0	 1.0	 2.0	 1	 39	 0.71	 0.0	 0.0	 0.0	 0.0	 0.0	 0.0	 0.0	 0.0	 0.0	 0.0	 0.0; % PEL
	1356	 42.0	 9.0	 43.0	 -43.0	 1.0	 1.0	 1	 86	 0.475	 0.0	 0.0	 0.0	 0.0	 0.0	 0.0	 0.0	 0.0	 0.0	 0.0	 0.0; % PEL
	1359	 35.0	 14.0	 32.0	 -32.0	 1.0	 1.0	 1	 63	 0.38	 0.0	 0.0	 0.0	 0.0	 0.0	 0.0	 0.0	 0.0	 0.0	 0.0	 0.0; % NG
	1393	 70.0	 9.0	 83.0	 -83.0	 1.0	 15.0	 1	 166	 6.055	 0.0	 0.0	 0.0	 0.0	 0.0	 0.0	 0.0	 0.0	 0.0	 0.0	 0.0; % PEL
	1403	 29.0	 10.0	 16.0	 -16.0	 1.0	 5.0	 1	 31	 2.035	 0.0	 0.0	 0.0	 0.0	 0.0	 0.0	 0.0	 0.0	 0.0	 0.0	 0.0; % NG
	1416	 112.0	 34.0	 180.0	 -92.0	 1.0	 246.0	 1	 184	 40.0	 0.0	 0.0	 0.0	 0.0	 0.0	 0.0	 0.0	 0.0	 0.0	 0.0	 0.0; % NG
	1417	 109.0	 38.0	 120.0	 -107.0	 1.0	 123.0	 1	 213	 40.0	 0.0	 0.0	 0.0	 0.0	 0.0	 0.0	 0.0	 0.0	 0.0	 0.0	 0.0; % NG
	1418	 51.0	 49.0	 90.0	 -58.8	 1.0	 123.0	 1	 52	 2.5	 0.0	 0.0	 0.0	 0.0	 0.0	 0.0	 0.0	 0.0	 0.0	 0.0	 0.0; % PEL
	1426	 73.0	 26.0	 69.0	 -69.0	 1.0	 106.0	 1	 138	 10.0	 0.0	 0.0	 0.0	 0.0	 0.0	 0.0	 0.0	 0.0	 0.0	 0.0	 0.0; % COW
	1429	 33.0	 6.0	 19.0	 -19.0	 1.0	 0.0	 1	 38	 0.095	 0.0	 0.0	 0.0	 0.0	 0.0	 0.0	 0.0	 0.0	 0.0	 0.0	 0.0; % PEL
	1469	 81.0	 -10.0	 81.0	 -81.0	 1.0	 1.0	 1	 162	 0.285	 0.0	 0.0	 0.0	 0.0	 0.0	 0.0	 0.0	 0.0	 0.0	 0.0	 0.0; % COW
	1475	 62.0	 28.0	 35.0	 -35.0	 1.0	 3.0	 1	 69	 0.995	 0.0	 0.0	 0.0	 0.0	 0.0	 0.0	 0.0	 0.0	 0.0	 0.0	 0.0; % PEL
	1504	 102.0	 -20.0	 124.0	 -124.0	 1.0	 37.0	 1	 247	 14.805	 0.0	 0.0	 0.0	 0.0	 0.0	 0.0	 0.0	 0.0	 0.0	 0.0	 0.0; % PEL
	1505	 98.0	 -32.0	 148.0	 -148.0	 1.0	 59.0	 1	 296	 23.18	 0.0	 0.0	 0.0	 0.0	 0.0	 0.0	 0.0	 0.0	 0.0	 0.0	 0.0; % NG
	1514	 36.0	 2.0	 30.0	 -30.0	 1.0	 3.0	 1	 60	 1.09	 0.0	 0.0	 0.0	 0.0	 0.0	 0.0	 0.0	 0.0	 0.0	 0.0	 0.0; % PEL
	1534	 41.0	 3.0	 22.0	 -22.0	 1.0	 0.0	 1	 43	 0.145	 0.0	 0.0	 0.0	 0.0	 0.0	 0.0	 0.0	 0.0	 0.0	 0.0	 0.0; % PEL
	1536	 178.0	 31.0	 227.0	 -227.0	 1.0	 251.0	 1	 454	 80.0	 0.0	 0.0	 0.0	 0.0	 0.0	 0.0	 0.0	 0.0	 0.0	 0.0	 0.0; % COW
	1537	 179.0	 42.0	 203.0	 -104.0	 1.0	 255.0	 1	 208	 80.0	 0.0	 0.0	 0.0	 0.0	 0.0	 0.0	 0.0	 0.0	 0.0	 0.0	 0.0; % NG
	1538	 101.0	 23.0	 190.0	 -97.0	 1.0	 255.0	 1	 193	 35.0	 0.0	 0.0	 0.0	 0.0	 0.0	 0.0	 0.0	 0.0	 0.0	 0.0	 0.0; % NG
	1542	 46.0	 2.0	 102.0	 -102.0	 1.0	 11.0	 1	 203	 4.255	 0.0	 0.0	 0.0	 0.0	 0.0	 0.0	 0.0	 0.0	 0.0	 0.0	 0.0; % NG
	1543	 50.0	 7.0	 66.0	 -66.0	 1.0	 1.0	 1	 132	 0.57	 0.0	 0.0	 0.0	 0.0	 0.0	 0.0	 0.0	 0.0	 0.0	 0.0	 0.0; % NG
	1550	 39.0	 6.0	 20.0	 -20.0	 1.0	 2.0	 1	 39	 0.85	 0.0	 0.0	 0.0	 0.0	 0.0	 0.0	 0.0	 0.0	 0.0	 0.0	 0.0; % PEL
	1566	 81.0	 21.0	 91.0	 -91.0	 1.0	 66.0	 1	 181	 26.015	 0.0	 0.0	 0.0	 0.0	 0.0	 0.0	 0.0	 0.0	 0.0	 0.0	 0.0; % NG
	1587	 94.0	 20.0	 129.0	 -129.0	 1.0	 77.0	 1	 258	 30.275	 0.0	 0.0	 0.0	 0.0	 0.0	 0.0	 0.0	 0.0	 0.0	 0.0	 0.0; % COW
	1600	 65.0	 13.0	 48.0	 -48.0	 1.0	 21.0	 1	 95	 8.28	 0.0	 0.0	 0.0	 0.0	 0.0	 0.0	 0.0	 0.0	 0.0	 0.0	 0.0; % PEL
	1602	 91.0	 21.0	 90.0	 -51.0	 1.0	 144.0	 1	 102	 20.0	 0.0	 0.0	 0.0	 0.0	 0.0	 0.0	 0.0	 0.0	 0.0	 0.0	 0.0; % PEL
	1603	 91.0	 67.0	 122.0	 -122.0	 1.0	 144.0	 1	 244	 20.0	 0.0	 0.0	 0.0	 0.0	 0.0	 0.0	 0.0	 0.0	 0.0	 0.0	 0.0; % NG
	1609	 32.0	 -19.0	 22.8	 -22.8	 1.0	 0.0	 1	 32	 0.145	 0.0	 0.0	 0.0	 0.0	 0.0	 0.0	 0.0	 0.0	 0.0	 0.0	 0.0; % PEL
	1617	 33.0	 -20.0	 24.0	 -24.0	 1.0	 2.0	 1	 48	 0.95	 0.0	 0.0	 0.0	 0.0	 0.0	 0.0	 0.0	 0.0	 0.0	 0.0	 0.0; % PEL
	1620	 35.0	 -16.0	 25.0	 -25.0	 1.0	 2.0	 1	 50	 0.76	 0.0	 0.0	 0.0	 0.0	 0.0	 0.0	 0.0	 0.0	 0.0	 0.0	 0.0; % PEL
...
];

%% generator cost data
%	2	startup	shutdown	n	c(n-1)	...	c0
mpc.gencost = [
	2	 0.0	 0.0	 3	   0.000000	   1.167623	   0.000000; % NG
	2	 0.0	 0.0	 3	   0.000000	   0.471105	   0.000000; % COW
	2	 0.0	 0.0	 3	   0.000000	   0.789951	   0.000000; % COW
	2	 0.0	 0.0	 3	   0.000000	   1.091015	   0.000000; % COW
	2	 0.0	 0.0	 3	   0.000000	   0.963000	   0.000000; % COW
	2	 0.0	 0.0	 3	   0.000000	   1.308369	   0.000000; % COW
	2	 0.0	 0.0	 3	   0.000000	   0.213115	   0.000000; % NUC
	2	 0.0	 0.0	 3	   0.000000	   0.887706	   0.000000; % NG
	2	 0.0	 0.0	 3	   0.000000	   1.109452	   0.000000; % NG
	2	 0.0	 0.0	 3	   0.000000	   1.233415	   0.000000; % NG
	2	 0.0	 0.0	 3	   0.000000	   0.485849	   0.000000; % COW
	2	 0.0	 0.0	 3	   0.000000	   0.942747	   0.000000; % NG
	2	 0.0	 0.0	 3	   0.000000	   0.943371	   0.000000; % COW
	2	 0.0	 0.0	 3	   0.000000	   0.901309	   0.000000; % COW
	2	 0.0	 0.0	 3	   0.000000	   0.281770	   0.000000; % COW
	2	 0.0	 0.0	 3	   0.000000	   0.822084	   0.000000; % NG
	2	 0.0	 0.0	 3	   0.000000	   1.196642	   0.000000; % NG
	2	 0.0	 0.0	 3	   0.000000	   1.104867	   0.000000; % NG
	2	 0.0	 0.0	 3	   0.000000	   0.580012	   0.000000; % COW
	2	 0.0	 0.0	 3	   0.000000	   0.923909	   0.000000; % COW
	2	 0.0	 0.0	 3	   0.000000	   0.659823	   0.000000; % COW
	2	 0.0	 0.0	 3	   0.000000	   7.024752	   0.000000; % PEL
	2	 0.0	 0.0	 3	   0.000000	   1.160694	   0.000000; % NG
	2	 0.0	 0.0	 3	   0.000000	   0.546177	   0.000000; % NG
	2	 0.0	 0.0	 3	   0.000000	   0.391567	   0.000000; % COW
	2	 0.0	 0.0	 3	   0.000000	   0.724300	   0.000000; % COW
	2	 0.0	 0.0	 3	   0.000000	   0.961350	   0.000000; % COW
	2	 0.0	 0.0	 3	   0.000000	   0.897018	   0.000000; % COW
	2	 0.0	 0.0	 3	   0.000000	   1.166222	   0.000000; % NG
	2	 0.0	 0.0	 3	   0.000000	   0.609337	   0.000000; % COW
	2	 0.0	 0.0	 3	   0.000000	   0.868009	   0.000000; % COW
	2	 0.0	 0.0	 3	   0.000000	   1.306027	   0.000000; % COW
	2	 0.0	 0.0	 3	   0.000000	   0.310270	   0.000000; % COW
	2	 0.0	 0.0	 3	   0.000000	   0.905264	   0.000000; % COW
	2	 0.0	 0.0	 3	   0.000000	   0.805659	   0.000000; % COW
	2	 0.0	 0.0	 3	   0.000000	   0.745122	   0.000000; % NG
	2	 0.0	 0.0	 3	   0.000000	   0.614865	   0.000000; % COW
	2	 0.0	 0.0	 3	   0.000000	   0.818264	   0.000000; % COW
	2	 0.0	 0.0	 3	   0.000000	   0.000000	   0.000000; % SYNC
	2	 0.0	 0.0	 3	   0.000000	   0.641438	   0.000000; % NG
	2	 0.0	 0.0	 3	   0.000000	   1.076062	   0.000000; % NG
	2	 0.0	 0.0	 3	   0.000000	   0.000000	   0.000000; % SYNC
	2	 0.0	 0.0	 3	   0.000000	   0.000000	   0.000000; % SYNC
	2	 0.0	 0.0	 3	   0.000000	   0.000000	   0.000000; % SYNC
	2	 0.0	 0.0	 3	   0.000000	   1.240478	   0.000000; % NG
	2	 0.0	 0.0	 3	   0.000000	   7.011163	   0.000000; % PEL
	2	 0.0	 0.0	 3	   0.000000	   0.558412	   0.000000; % NG
	2	 0.0	 0.0	 3	   0.000000	   1.086833	   0.000000; % NG
	2	 0.0	 0.0	 3	   0.000000	   6.740978	   0.000000; % PEL
	2	 0.0	 0.0	 3	   0.000000	   7.035428	   0.000000; % PEL
	2	 0.0	 0.0	 3	   0.000000	   0.638516	   0.000000; % NG
	2	 0.0	 0.0	 3	   0.000000	   7.083174	   0.000000; % PEL
	2	 0.0	 0.0	 3	   0.000000	   1.056856	   0.000000; % NG
	2	 0.0	 0.0	 3	   0.000000	   7.463822	   0.000000; % PEL
	2	 0.0	 0.0	 3	   0.000000	   0.878628	   0.000000; % NG
	2	 0.0	 0.0	 3	   0.000000	   1.664384	   0.000000; % NG
	2	 0.0	 0.0	 3	   0.000000	   6.938102	   0.000000; % PEL
	2	 0.0	 0.0	 3	   0.000000	   7.533013	   0.000000; % PEL
	2	 0.0	 0.0	 3	   0.000000	   6.789765	   0.000000; % PEL
	2	 0.0	 0.0	 3	   0.000000	   1.325476	   0.000000; % NG
	2	 0.0	 0.0	 3	   0.000000	   1.016227	   0.000000; % NG
	2	 0.0	 0.0	 3	   0.000000	   1.082339	   0.000000; % NG
	2	 0.0	 0.0	 3	   0.000000	   1.069270	   0.000000; % NG
	2	 0.0	 0.0	 3	   0.000000	   7.062817	   0.000000; % PEL
	2	 0.0	 0.0	 3	   0.000000	   1.280424	   0.000000; % NG
	2	 0.0	 0.0	 3	   0.000000	   1.292453	   0.000000; % NG
	2	 0.0	 0.0	 3	   0.000000	   7.185952	   0.000000; % PEL
	2	 0.0	 0.0	 3	   0.000000	   7.071954	   0.000000; % PEL
	2	 0.0	 0.0	 3	   0.000000	   6.849499	   0.000000; % PEL
	2	 0.0	 0.0	 3	   0.000000	   1.092032	   0.000000; % NG
	2	 0.0	 0.0	 3	   0.000000	   1.035306	   0.000000; % NG
	2	 0.0	 0.0	 3	   0.000000	   6.744988	   0.000000; % PEL
	2	 0.0	 0.0	 3	   0.000000	   0.668802	   0.000000; % NG
	2	 0.0	 0.0	 3	   0.000000	   6.167588	   0.000000; % PEL
	2	 0.0	 0.0	 3	   0.000000	   0.769099	   0.000000; % NG
	2	 0.0	 0.0	 3	   0.000000	   0.994571	   0.000000; % NG
	2	 0.0	 0.0	 3	   0.000000	   1.331462	   0.000000; % NG
	2	 0.0	 0.0	 3	   0.000000	   6.905758	   0.000000; % PEL
	2	 0.0	 0.0	 3	   0.000000	   7.159417	   0.000000; % PEL
	2	 0.0	 0.0	 3	   0.000000	   0.295250	   0.000000; % COW
	2	 0.0	 0.0	 3	   0.000000	   1.503770	   0.000000; % NG
	2	 0.0	 0.0	 3	   0.000000	   1.059613	   0.000000; % COW
	2	 0.0	 0.0	 3	   0.000000	   0.556416	   0.000000; % NG
	2	 0.0	 0.0	 3	   0.000000	   1.338687	   0.000000; % NG
	2	 0.0	 0.0	 3	   0.000000	   1.433858	   0.000000; % NG
	2	 0.0	 0.0	 3	   0.000000	   1.127372	   0.000000; % NG
	2	 0.0	 0.0	 3	   0.000000	   6.969749	   0.000000; % PEL
	2	 0.0	 0.0	 3	   0.000000	   7.066173	   0.000000; % PEL
	2	 0.0	 0.0	 3	   0.000000	   6.979037	   0.000000; % PEL
	2	 0.0	 0.0	 3	   0.000000	   1.245370	   0.000000; % NG
	2	 0.0	 0.0	 3	   0.000000	   6.529083	   0.000000; % PEL
	2	 0.0	 0.0	 3	   0.000000	   0.961469	   0.000000; % NG
	2	 0.0	 0.0	 3	   0.000000	   1.274140	   0.000000; % NG
	2	 0.0	 0.0	 3	   0.000000	   0.834894	   0.000000; % NG
	2	 0.0	 0.0	 3	   0.000000	   6.629724	   0.000000; % PEL
	2	 0.0	 0.0	 3	   0.000000	   1.520501	   0.000000; % NG
	2	 0.0	 0.0	 3	   0.000000	   0.916917	   0.000000; % NG
	2	 0.0	 0.0	 3	   0.000000	   7.048207	   0.000000; % PEL
	2	 0.0	 0.0	 3	   0.000000	   6.519297	   0.000000; % PEL
	2	 0.0	 0.0	 3	   0.000000	   6.542500	   0.000000; % PEL
	2	 0.0	 0.0	 3	   0.000000	   6.761767	   0.000000; % PEL
	2	 0.0	 0.0	 3	   0.000000	   0.717145	   0.000000; % NG
	2	 0.0	 0.0	 3	   0.000000	   6.951722	   0.000000; % PEL
	2	 0.0	 0.0	 3	   0.000000	   1.059640	   0.000000; % NG
	2	 0.0	 0.0	 3	   0.000000	   7.309405	   0.000000; % PEL
	2	 0.0	 0.0	 3	   0.000000	   0.825738	   0.000000; % NG
	2	 0.0	 0.0	 3	   0.000000	   1.075782	   0.000000; % NG
	2	 0.0	 0.0	 3	   0.000000	   0.720265	   0.000000; % NG
	2	 0.0	 0.0	 3	   0.000000	   0.983187	   0.000000; % NG
	2	 0.0	 0.0	 3	   0.000000	   0.948097	   0.000000; % NG
	2	 0.0	 0.0	 3	   0.000000	   1.428133	   0.000000; % NG
	2	 0.0	 0.0	 3	   0.000000	   1.323221	   0.000000; % NG
	2	 0.0	 0.0	 3	   0.000000	   0.907950	   0.000000; % NG
	2	 0.0	 0.0	 3	   0.000000	   6.780123	   0.000000; % PEL
	2	 0.0	 0.0	 3	   0.000000	   6.889677	   0.000000; % PEL
	2	 0.0	 0.0	 3	   0.000000	   1.235562	   0.000000; % NG
	2	 0.0	 0.0	 3	   0.000000	   7.471841	   0.000000; % PEL
	2	 0.0	 0.0	 3	   0.000000	   6.906136	   0.000000; % PEL
	2	 0.0	 0.0	 3	   0.000000	   0.963629	   0.000000; % NG
	2	 0.0	 0.0	 3	   0.000000	   1.396269	   0.000000; % NG
	2	 0.0	 0.0	 3	   0.000000	   6.971694	   0.000000; % PEL
	2	 0.0	 0.0	 3	   0.000000	   7.051407	   0.000000; % PEL
	2	 0.0	 0.0	 3	   0.000000	   0.792476	   0.000000; % NG
	2	 0.0	 0.0	 3	   0.000000	   1.183840	   0.000000; % NG
	2	 0.0	 0.0	 3	   0.000000	   1.068318	   0.000000; % NG
	2	 0.0	 0.0	 3	   0.000000	   1.111642	   0.000000; % NG
	2	 0.0	 0.0	 3	   0.000000	   0.892576	   0.000000; % NG
	2	 0.0	 0.0	 3	   0.000000	   0.488784	   0.000000; % NG
	2	 0.0	 0.0	 3	   0.000000	   6.590073	   0.000000; % PEL
	2	 0.0	 0.0	 3	   0.000000	   6.684504	   0.000000; % PEL
	2	 0.0	 0.0	 3	   0.000000	   7.036795	   0.000000; % PEL
	2	 0.0	 0.0	 3	   0.000000	   6.773436	   0.000000; % PEL
	2	 0.0	 0.0	 3	   0.000000	   0.892562	   0.000000; % NG
	2	 0.0	 0.0	 3	   0.000000	   6.672874	   0.000000; % PEL
	2	 0.0	 0.0	 3	   0.000000	   6.665125	   0.000000; % PEL
	2	 0.0	 0.0	 3	   0.000000	   0.966460	   0.000000; % NG
	2	 0.0	 0.0	 3	   0.000000	   6.796097	   0.000000; % PEL
	2	 0.0	 0.0	 3	   0.000000	   0.709365	   0.000000; % COW
	2	 0.0	 0.0	 3	   0.000000	   1.157784	   0.000000; % NG
	2	 0.0	 0.0	 3	   0.000000	   0.908034	   0.000000; % NG
	2	 0.0	 0.0	 3	   0.000000	   1.261826	   0.000000; % NG
	2	 0.0	 0.0	 3	   0.000000	   1.028770	   0.000000; % NG
	2	 0.0	 0.0	 3	   0.000000	   1.002582	   0.000000; % NG
	2	 0.0	 0.0	 3	   0.000000	   7.050931	   0.000000; % PEL
	2	 0.0	 0.0	 3	   0.000000	   6.740260	   0.000000; % PEL
	2	 0.0	 0.0	 3	   0.000000	   6.332291	   0.000000; % PEL
	2	 0.0	 0.0	 3	   0.000000	   6.774560	   0.000000; % PEL
	2	 0.0	 0.0	 3	   0.000000	   0.670920	   0.000000; % COW
	2	 0.0	 0.0	 3	   0.000000	   1.474664	   0.000000; % NG
	2	 0.0	 0.0	 3	   0.000000	   1.103613	   0.000000; % NG
	2	 0.0	 0.0	 3	   0.000000	   7.222432	   0.000000; % PEL
	2	 0.0	 0.0	 3	   0.000000	   0.827621	   0.000000; % NG
	2	 0.0	 0.0	 3	   0.000000	   0.740110	   0.000000; % NG
	2	 0.0	 0.0	 3	   0.000000	   1.148049	   0.000000; % NG
	2	 0.0	 0.0	 3	   0.000000	   0.803695	   0.000000; % NG
	2	 0.0	 0.0	 3	   0.000000	   0.844949	   0.000000; % NG
	2	 0.0	 0.0	 3	   0.000000	   0.992762	   0.000000; % NG
	2	 0.0	 0.0	 3	   0.000000	   1.240386	   0.000000; % NG
	2	 0.0	 0.0	 3	   0.000000	   1.270981	   0.000000; % COW
	2	 0.0	 0.0	 3	   0.000000	   1.330205	   0.000000; % NG
	2	 0.0	 0.0	 3	   0.000000	   0.959503	   0.000000; % NG
	2	 0.0	 0.0	 3	   0.000000	   0.780265	   0.000000; % NG
	2	 0.0	 0.0	 3	   0.000000	   1.307063	   0.000000; % NG
	2	 0.0	 0.0	 3	   0.000000	   1.145784	   0.000000; % NG
	2	 0.0	 0.0	 3	   0.000000	   1.200387	   0.000000; % NG
	2	 0.0	 0.0	 3	   0.000000	   1.130959	   0.000000; % NG
	2	 0.0	 0.0	 3	   0.000000	   1.140012	   0.000000; % NG
	2	 0.0	 0.0	 3	   0.000000	   7.034002	   0.000000; % PEL
	2	 0.0	 0.0	 3	   0.000000	   6.554437	   0.000000; % PEL
	2	 0.0	 0.0	 3	   0.000000	   6.495628	   0.000000; % PEL
	2	 0.0	 0.0	 3	   0.000000	   6.808725	   0.000000; % PEL
	2	 0.0	 0.0	 3	   0.000000	   7.187445	   0.000000; % PEL
	2	 0.0	 0.0	 3	   0.000000	   0.883874	   0.000000; % NG
	2	 0.0	 0.0	 3	   0.000000	   7.013306	   0.000000; % PEL
	2	 0.0	 0.0	 3	   0.000000	   1.310800	   0.000000; % NG
	2	 0.0	 0.0	 3	   0.000000	   1.130640	   0.000000; % NG
	2	 0.0	 0.0	 3	   0.000000	   1.246588	   0.000000; % NG
	2	 0.0	 0.0	 3	   0.000000	   7.160520	   0.000000; % PEL
	2	 0.0	 0.0	 3	   0.000000	   0.728012	   0.000000; % COW
	2	 0.0	 0.0	 3	   0.000000	   7.490465	   0.000000; % PEL
	2	 0.0	 0.0	 3	   0.000000	   1.314757	   0.000000; % COW
	2	 0.0	 0.0	 3	   0.000000	   6.763023	   0.000000; % PEL
	2	 0.0	 0.0	 3	   0.000000	   7.181703	   0.000000; % PEL
	2	 0.0	 0.0	 3	   0.000000	   1.126488	   0.000000; % NG
	2	 0.0	 0.0	 3	   0.000000	   7.111365	   0.000000; % PEL
	2	 0.0	 0.0	 3	   0.000000	   6.658778	   0.000000; % PEL
	2	 0.0	 0.0	 3	   0.000000	   0.478544	   0.000000; % COW
	2	 0.0	 0.0	 3	   0.000000	   1.009592	   0.000000; % NG
	2	 0.0	 0.0	 3	   0.000000	   1.332110	   0.000000; % NG
	2	 0.0	 0.0	 3	   0.000000	   1.013079	   0.000000; % NG
	2	 0.0	 0.0	 3	   0.000000	   1.241058	   0.000000; % NG
	2	 0.0	 0.0	 3	   0.000000	   7.454246	   0.000000; % PEL
	2	 0.0	 0.0	 3	   0.000000	   1.109563	   0.000000; % NG
	2	 0.0	 0.0	 3	   0.000000	   0.380278	   0.000000; % COW
	2	 0.0	 0.0	 3	   0.000000	   7.909138	   0.000000; % PEL
	2	 0.0	 0.0	 3	   0.000000	   7.187059	   0.000000; % PEL
	2	 0.0	 0.0	 3	   0.000000	   1.094039	   0.000000; % NG
	2	 0.0	 0.0	 3	   0.000000	   7.032393	   0.000000; % PEL
	2	 0.0	 0.0	 3	   0.000000	   7.580133	   0.000000; % PEL
	2	 0.0	 0.0	 3	   0.000000	   6.604971	   0.000000; % PEL
...
];

%% branch data
%	fbus	tbus	r	x	b	rateA	rateB	rateC	ratio	angle	status	angmin	angmax
mpc.branch = [
	16	 1	 0.00155	 0.01169	 0.0182	 160.0	 160.0	 160.0	 0.0	 0.0	 1	 -30.0	 30.0;
	355	 1	 0.00157	 0.06612	 0.0	 160.0	 160.0	 160.0	 1.0099	 0.0	 1	 -30.0	 30.0;
	17	 2	 0.00155	 0.01169	 0.0182	 160.0	 160.0	 160.0	 0.0	 0.0	 1	 -30.0	 30.0;
	354	 2	 0.00157	 0.06612	 0.0	 160.0	 160.0	 160.0	 1.022	 0.0	 1	 -30.0	 30.0;
	10	 3	 0.01068	 0.07895	 0.1226	 274.0	 274.0	 274.0	 0.0	 0.0	 1	 -30.0	 30.0;
	219	 3	 0.00165	 0.06736	 0.0	 160.0	 160.0	 160.0	 1.027	 0.0	 1	 -30.0	 30.0;
	220	 3	 0.00165	 0.06736	 0.0	 160.0	 160.0	 160.0	 0.9955	 0.0	 1	 -30.0	 30.0;
	7	 4	 0.01674	 0.09711	 0.14423	 377.0	 377.0	 377.0	 0.0	 0.0	 1	 -30.0	 30.0;
	11	 4	 0.00293	 0.01599	 0.02478	 335.0	 335.0	 335.0	 0.0	 0.0	 1	 -30.0	 30.0;
	14	 4	 0.00442	 0.03223	 0.04985	 464.0	 464.0	 464.0	 0.0	 0.0	 1	 -30.0	 30.0;
	16	 4	 0.00888	 0.06665	 0.08896	 377.0	 377.0	 377.0	 0.0	 0.0	 1	 -30.0	 30.0;
	22	 4	 0.00783	 0.043	 0.04962	 350.0	 350.0	 350.0	 0.0	 0.0	 1	 -30.0	 30.0;
	245	 4	 0.00165	 0.06901	 0.0	 160.0	 160.0	 160.0	 1.0594	 0.0	 1	 -30.0	 30.0;
	246	 4	 0.00165	 0.06901	 0.0	 160.0	 160.0	 160.0	 1.0448	 0.0	 1	 -30.0	 30.0;
	5	 6	 0.00064	 0.0305	 0.0	 400.0	 400.0	 400.0	 1.0435	 -0.6	 1	 -30.0	 30.0;
	7	 5	 0.00525	 0.03988	 0.06195	 381.0	 381.0	 381.0	 0.0	 0.0	 1	 -30.0	 30.0;
	10	 5	 0.01459	 0.11219	 0.16553	 381.0	 381.0	 381.0	 0.0	 0.0	 1	 -30.0	 30.0;
	309	 5	 0.00165	 0.0686	 0.0	 160.0	 160.0	 160.0	 1.0646	 0.0	 1	 -30.0	 30.0;
	309	 5	 0.00165	 0.0686	 0.0	 160.0	 160.0	 160.0	 1.0523	 0.0	 1	 -30.0	 30.0;
	6	 8	 0.00112	 0.01329	 0.34125	 1316.0	 1316.0	 1316.0	 0.0	 0.0	 1	 -30.0	 30.0;
	6	 9	 0.00299	 0.03675	 0.9184	 1427.0	 1427.0	 1427.0	 0.0	 0.0	 1	 -30.0	 30.0;
	15	 6	 0.00298	 0.03417	 0.93504	 1427.0	 1427.0	 1427.0	 0.0	 0.0	 1	 -30.0	 30.0;
	31	 6	 0.0015	 0.01506	 0.4032	 1385.0	 1385.0	 1385.0	 0.0	 0.0	 1	 -30.0	 30.0;
	310	 6	 0.0015	 0.06188	 0.0	 250.0	 250.0	 250.0	 1.0613	 0.0	 1	 -30.0	 30.0;
	12	 7	 0.01211	 0.08742	 0.14017	 381.0	 381.0	 381.0	 0.0	 0.0	 1	 -30.0	 30.0;
	13	 7	 0.00205	 0.01326	 0.02243	 335.0	 335.0	 335.0	 0.0	 0.0	 1	 -30.0	 30.0;
	19	 7	 0.0057	 0.0407	 0.06021	 323.0	 323.0	 323.0	 0.0	 0.0	 1	 -30.0	 30.0;
	21	 7	 0.00093	 0.00651	 0.01113	 160.0	 160.0	 160.0	 0.0	 0.0	 1	 -30.0	 30.0;
	29	 7	 0.01269	 0.07498	 0.1302	 362.0	 362.0	 362.0	 0.0	 0.0	 1	 -30.0	 30.0;
	321	 7	 0.00041	 0.03368	 0.0	 250.0	 250.0	 250.0	 1.0323	 0.0	 1	 -30.0	 30.0;
	322	 7	 0.00165	 0.06775	 0.0	 160.0	 160.0	 160.0	 1.0569	 0.0	 1	 -30.0	 30.0;
	8	 18	 0.00336	 0.03977	 1.02163	 1316.0	 1316.0	 1316.0	 0.0	 0.0	 1	 -30.0	 30.0;
	332	 9	 0.00087	 0.05244	 -0.02144	 330.0	 330.0	 330.0	 1.0781	 0.0	 1	 -30.0	 30.0;
	171	 10	 0.01409	 0.10413	 0.15972	 464.0	 464.0	 464.0	 0.0	 0.0	 1	 -30.0	 30.0;
	346	 10	 0.00124	 0.06839	 0.0	 160.0	 160.0	 160.0	 1.0054	 0.0	 1	 -30.0	 30.0;
	347	 10	 0.00124	 0.06839	 0.0	 160.0	 160.0	 160.0	 1.024	 0.0	 1	 -30.0	 30.0;
	16	 11	 0.0057	 0.03952	 0.07553	 464.0	 464.0	 464.0	 0.0	 0.0	 1	 -30.0	 30.0;
	17	 11	 0.0057	 0.03952	 0.07553	 464.0	 464.0	 464.0	 0.0	 0.0	 1	 -30.0	 30.0;
	111	 11	 0.01068	 0.06196	 0.09496	 394.0	 394.0	 394.0	 0.0	 0.0	 1	 -30.0	 30.0;
	352	 11	 0.00165	 0.06901	 0.0	 160.0	 160.0	 160.0	 1.0412	 0.0	 1	 -30.0	 30.0;
	353	 11	 0.00165	 0.06901	 0.0	 160.0	 160.0	 160.0	 1.0559	 0.0	 1	 -30.0	 30.0;
	140	 12	 0.01465	 0.10589	 0.17085	 464.0	 464.0	 464.0	 0.0	 0.0	 1	 -30.0	 30.0;
	359	 12	 0.00155	 0.06612	 0.0	 160.0	 160.0	 160.0	 1.0395	 0.0	 1	 -30.0	 30.0;
	360	 12	 0.00157	 0.06612	 0.0	 160.0	 160.0	 160.0	 1.059	 0.0	 1	 -30.0	 30.0;
	29	 13	 0.01345	 0.08114	 0.14113	 339.0	 339.0	 339.0	 0.0	 0.0	 1	 -30.0	 30.0;
	365	 13	 0.00165	 0.06901	 0.0	 160.0	 160.0	 160.0	 1.0312	 0.0	 1	 -30.0	 30.0;
	366	 13	 0.00165	 0.06901	 0.0	 160.0	 160.0	 160.0	 0.9872	 0.0	 1	 -30.0	 30.0;
	17	 14	 0.00384	 0.02853	 0.04588	 464.0	 464.0	 464.0	 0.0	 0.0	 1	 -30.0	 30.0;
	367	 14	 0.00157	 0.06798	 0.0	 160.0	 160.0	 160.0	 1.0664	 0.0	 1	 -30.0	 30.0;
	368	 14	 0.00165	 0.06901	 0.0	 160.0	 160.0	 160.0	 1.0777	 0.0	 1	 -30.0	 30.0;
	18	 15	 0.00358	 0.04262	 1.0944	 1662.0	 1662.0	 1662.0	 0.0	 0.0	 1	 -30.0	 30.0;
	15	 165	 0.00207	 0.02474	 0.664	 831.0	 831.0	 831.0	 0.0	 0.0	 1	 -30.0	 30.0;
	374	 15	 0.0015	 0.06188	 0.0	 250.0	 250.0	 250.0	 1.1502	 0.0	 1	 -30.0	 30.0;
	16	 18	 0.00036	 0.02519	 0.0	 500.0	 500.0	 500.0	 1.0605	 0.0	 1	 -30.0	 30.0;
	16	 73	 0.00909	 0.0624	 0.11142	 464.0	 464.0	 464.0	 0.0	 0.0	 1	 -30.0	 30.0;
	17	 18	 0.00036	 0.02519	 0.0	 500.0	 500.0	 500.0	 1.0607	 0.0	 1	 -30.0	 30.0;
	17	 74	 0.00868	 0.06405	 0.09699	 464.0	 464.0	 464.0	 0.0	 0.0	 1	 -30.0	 30.0;
	20	 18	 0.00063	 0.00749	 0.39226	 1427.0	 1427.0	 1427.0	 0.0	 0.0	 1	 -30.0	 30.0;
	75	 18	 0.00219	 0.02369	 0.59584	 1434.0	 1434.0	 1434.0	 0.0	 0.0	 1	 -30.0	 30.0;
	18	 76	 0.00137	 0.01625	 0.41184	 1662.0	 1662.0	 1662.0	 0.0	 0.0	 1	 -30.0	 30.0;
	18	 101	 0.00231	 0.02769	 0.70144	 1662.0	 1662.0	 1662.0	 0.0	 0.0	 1	 -30.0	 30.0;
	124	 19	 0.01696	 0.12366	 0.19699	 464.0	 464.0	 464.0	 0.0	 0.0	 1	 -30.0	 30.0;
...